<style type="text/css">
#kohana_error { background: #ddd; font-size: 1em; font-family:sans-serif; text-align: left; color: #111; }
#kohana_error h1,
#kohana_error h2 { margin: 0; padding: 1em; font-size: 1em; font-weight: normal; background: #911; color: #fff; }
	#kohana_error h1 a,
	#kohana_error h2 a { color: #fff; }
#kohana_error h2 { background: #222; }
#kohana_error h3 { margin: 0; padding: 0.4em 0 0; font-size: 1em; font-weight: normal; }
#kohana_error p { margin: 0; padding: 0.2em 0; }
#kohana_error a { color: #1b323b; }
#kohana_error pre { overflow: auto; white-space: pre-wrap; }
#kohana_error table { width: 100%; display: block; margin: 0 0 0.4em; padding: 0; border-collapse: collapse; background: #fff; }
	#kohana_error table td { border: solid 1px #ddd; text-align: left; vertical-align: top; padding: 0.4em; }
#kohana_error div.content { padding: 0.4em 1em 1em; overflow: hidden; }
#kohana_error pre.source { margin: 0 0 1em; padding: 0.4em; background: #fff; border: dotted 1px #b7c680; line-height: 1.2em; }
	#kohana_error pre.source span.line { display: block; }
	#kohana_error pre.source span.highlight { background: #f0eb96; }
		#kohana_error pre.source span.line span.number { color: #666; }
#kohana_error ol.trace { display: block; margin: 0 0 0 2em; padding: 0; list-style: decimal; }
	#kohana_error ol.trace li { margin: 0; padding: 0; }
.js .collapsed { display: none; }
</style>
<script type="text/javascript">
document.documentElement.className = document.documentElement.className + ' js';
function koggle(elem)
{
	elem = document.getElementById(elem);

	if (elem.style && elem.style['display'])
		// Only works with the "style" attr
		var disp = elem.style['display'];
	else if (elem.currentStyle)
		// For MSIE, naturally
		var disp = elem.currentStyle['display'];
	else if (window.getComputedStyle)
		// For most other browsers
		var disp = document.defaultView.getComputedStyle(elem, null).getPropertyValue('display');

	// Toggle the state of the "display" style
	elem.style.display = disp == 'block' ? 'none' : 'block';
	return false;
}
</script>
<div id="kohana_error">
	<h1><span class="type">Twig_Error_Runtime [ 0 ]:</span> <span class="message">Key &quot;name&quot; for array with keys &quot;id, label, url&quot; does not exist in &quot;ifaces/Index&quot; at line 93</span></h1>
	<div id="error5346a5920363f" class="content">
		<p><span class="file">MODPATH/twig/vendor/twig/lib/Twig/Template.php [ 377 ]</span></p>
		<pre class="source"><code><span class="line"><span class="number">372</span>                 }
</span><span class="line"><span class="number">373</span> 
</span><span class="line"><span class="number">374</span>                 if (is_object($object)) {
</span><span class="line"><span class="number">375</span>                     throw new Twig_Error_Runtime(sprintf('Key "%s" in object (with ArrayAccess) of type "%s" does not exist', $arrayItem, get_class($object)), -1, $this-&gt;getTemplateName());
</span><span class="line"><span class="number">376</span>                 } elseif (is_array($object)) {
</span><span class="line highlight"><span class="number">377</span>                     throw new Twig_Error_Runtime(sprintf('Key "%s" for array with keys "%s" does not exist', $arrayItem, implode(', ', array_keys($object))), -1, $this-&gt;getTemplateName());
</span><span class="line"><span class="number">378</span>                 } elseif (Twig_Template::ARRAY_CALL === $type) {
</span><span class="line"><span class="number">379</span>                     throw new Twig_Error_Runtime(sprintf('Impossible to access a key ("%s") on a %s variable ("%s")', $item, gettype($object), $object), -1, $this-&gt;getTemplateName());
</span><span class="line"><span class="number">380</span>                 } else {
</span><span class="line"><span class="number">381</span>                     throw new Twig_Error_Runtime(sprintf('Impossible to access an attribute ("%s") on a %s variable ("%s")', $item, gettype($object), $object), -1, $this-&gt;getTemplateName());
</span><span class="line"><span class="number">382</span>                 }
</span></code></pre>		<ol class="trace">
					<li>
				<p>
					<span class="file">
													<a href="#error5346a5920363fsource0" onclick="return koggle('error5346a5920363fsource0')">MODPATH/twig/cache/37/34/6ea23af70774b37fd39258fc8ee970a9af41899bd8430419f29d5340f1c1.php [ 126 ]</a>
											</span>
					&raquo;
					Twig_Template->getAttribute(<a href="#error5346a5920363fargs0" onclick="return koggle('error5346a5920363fargs0')">arguments</a>)
				</p>
								<div id="error5346a5920363fargs0" class="collapsed">
					<table cellspacing="0">
											<tr>
							<td><code>0</code></td>
							<td><pre><small>array</small><span>(3)</span> <span>(
    "id" => <small>string</small><span>(1)</span> "1"
    "label" => <small>string</small><span>(16)</span> "Живопись"
    "url" => <small>string</small><span>(15)</span> "/lots/zhivopis-"
)</span></pre></td>
						</tr>
											<tr>
							<td><code>1</code></td>
							<td><pre><small>string</small><span>(4)</span> "name"</pre></td>
						</tr>
										</table>
				</div>
													<pre id="error5346a5920363fsource0" class="source collapsed"><code><pre class="source"><code><span class="line"><span class="number">121</span>         foreach ($context['_seq'] as $context["_key"] =&gt; $context["cat"]) {
</span><span class="line"><span class="number">122</span>             // line 93
</span><span class="line"><span class="number">123</span>             echo "                        &lt;a href=\"";
</span><span class="line"><span class="number">124</span>             echo twig_escape_filter($this-&gt;env, $this-&gt;getAttribute((isset($context["cat"]) ? $context["cat"] : $this-&gt;getContext($context, "cat")), "url"), "html", null, true);
</span><span class="line"><span class="number">125</span>             echo "\" class=\"Room-Light text-shadow-yellow button-yellow\"&gt;";
</span><span class="line highlight"><span class="number">126</span>             echo twig_escape_filter($this-&gt;env, $this-&gt;getAttribute((isset($context["cat"]) ? $context["cat"] : $this-&gt;getContext($context, "cat")), "name"), "html", null, true);
</span><span class="line"><span class="number">127</span>             echo "&lt;/a&gt;
</span><span class="line"><span class="number">128</span>                     ";
</span><span class="line"><span class="number">129</span>         }
</span><span class="line"><span class="number">130</span>         $_parent = $context['_parent'];
</span><span class="line"><span class="number">131</span>         unset($context['_seq'], $context['_iterated'], $context['_key'], $context['cat'], $context['_parent'], $context['loop']);
</span></code></pre></code></pre>
							</li>
								<li>
				<p>
					<span class="file">
													<a href="#error5346a5920363fsource1" onclick="return koggle('error5346a5920363fsource1')">MODPATH/twig/vendor/twig/lib/Twig/Template.php [ 142 ]</a>
											</span>
					&raquo;
					__TwigTemplate_37346ea23af70774b37fd39258fc8ee970a9af41899bd8430419f29d5340f1c1->block_content(<a href="#error5346a5920363fargs1" onclick="return koggle('error5346a5920363fargs1')">arguments</a>)
				</p>
								<div id="error5346a5920363fargs1" class="collapsed">
					<table cellspacing="0">
											<tr>
							<td><code>0</code></td>
							<td><pre><small>array</small><span>(10)</span> <span>(
    "categories" => <small>array</small><span>(6)</span> <span>(
        0 => <small>array</small><span>(3)</span> <span>(
            "id" => <small>string</small><span>(1)</span> "1"
            "label" => <small>string</small><span>(16)</span> "Живопись"
            "url" => <small>string</small><span>(15)</span> "/lots/zhivopis-"
        )</span>
        1 => <small>array</small><span>(3)</span> <span>(
            "id" => <small>string</small><span>(1)</span> "2"
            "label" => <small>string</small><span>(14)</span> "Графика"
            "url" => <small>string</small><span>(13)</span> "/lots/grafika"
        )</span>
        2 => <small>array</small><span>(3)</span> <span>(
            "id" => <small>string</small><span>(1)</span> "3"
            "label" => <small>string</small><span>(20)</span> "Скульптура"
            "url" => <small>string</small><span>(16)</span> "/lots/skul-ptura"
        )</span>
        3 => <small>array</small><span>(3)</span> <span>(
            "id" => <small>string</small><span>(1)</span> "4"
            "label" => <small>string</small><span>(20)</span> "Фотография"
            "url" => <small>string</small><span>(17)</span> "/lots/fotografiya"
        )</span>
        4 => <small>array</small><span>(3)</span> <span>(
            "id" => <small>string</small><span>(1)</span> "5"
            "label" => <small>string</small><span>(10)</span> "Книги"
            "url" => <small>string</small><span>(11)</span> "/lots/knigi"
        )</span>
        5 => <small>array</small><span>(3)</span> <span>(
            "id" => <small>string</small><span>(1)</span> "6"
            "label" => <small>string</small><span>(30)</span> "Мебель, интерьер"
            "url" => <small>string</small><span>(21)</span> "/lots/mebel--inter-er"
        )</span>
    )</span>
    "recommended_lots" => <small>object</small> <span>Widget_Lot_List(9)</span> <code>{
        <small>protected</small> _name => <small>string</small><span>(8)</span> "Lot_List"
        <small>protected</small> _current_state => <small>string</small><span>(7)</span> "default"
        <small>protected</small> _context => <small>array</small><span>(0)</span> 
        <small>protected</small> _data => <small>array</small><span>(1)</span> <span>(
            "lot_items" => <small>array</small><span>(3)</span> <span>(
                0 => <small>array</small><span>(16)</span> <span>(
                    "id" => <small>string</small><span>(1)</span> "4"
                    "title" => <small>string</small><span>(23)</span> "Девятый вал 2"
                    "description" => <small>string</small><span>(0)</span> ""
                    "price" => <small>string</small><span>(6)</span> "200000"
                    "author" => <small>array</small><span>(3)</span> <span>(
                        "id" => <small>string</small><span>(1)</span> "1"
                        "label" => <small>string</small><span>(60)</span> "Иван Константинович Айвазовский"
                        "description" => <small>string</small><span>(66)</span> "Выдающийся русский мастер живописи."
                    )</span>
                    "country" => <small>array</small><span>(7)</span> <span>(
                        "id" => <small>string</small><span>(1)</span> "1"
                        "label" => <small>string</small><span>(14)</span> "Абхазия"
                        "fullname" => <small>string</small><span>(35)</span> "Республика Абхазия"
                        "created_by" => <small>string</small><span>(1)</span> "1"
                        "created_at" => <small>string</small><span>(19)</span> "2014-04-01 15:10:13"
                        "approved_by" => <small>string</small><span>(1)</span> "1"
                        "approved_at" => <small>string</small><span>(19)</span> "2014-04-01 15:10:13"
                    )</span>
                    "year" => <small>string</small><span>(4)</span> "1903"
                    "category" => <small>array</small><span>(3)</span> <span>(
                        "id" => <small>string</small><span>(1)</span> "1"
                        "label" => <small>string</small><span>(16)</span> "Живопись"
                        "url" => <small>string</small><span>(15)</span> "/lots/zhivopis-"
                    )</span>
                    "subcategory" => <small>array</small><span>(3)</span> <span>(
                        "id" => <small>string</small><span>(1)</span> "1"
                        "label" => <small>string</small><span>(55)</span> "Русская живопись 19 - нач 20 века"
                        "url" => <small>string</small><span>(52)</span> "/lots/zhivopis-/russkaya-zhivopis--19---nach-20-veka"
                    )</span>
                    "width" => <small>string</small><span>(1)</span> "0"
                    "height" => <small>string</small><span>(1)</span> "0"
                    "depth" => <small>string</small><span>(1)</span> "0"
                    "parameters" => <small>array</small><span>(0)</span> 
                    "url" => <small>string</small><span>(67)</span> "/lots/zhivopis-/russkaya-zhivopis--19---nach-20-veka/devyatyj-val-2"
                    "preview" => <small>string</small><span>(41)</span> "/!/static/temp/devjaty-val-ajvazovsky.jpg"
                    "allowActions" => <small>bool</small> FALSE
                )</span>
                1 => <small>array</small><span>(16)</span> <span>(
                    "id" => <small>string</small><span>(1)</span> "6"
                    "title" => <small>string</small><span>(23)</span> "Девятый вал 3"
                    "description" => <small>string</small><span>(0)</span> ""
                    "price" => <small>string</small><span>(6)</span> "200000"
                    "author" => <small>array</small><span>(3)</span> <span>(
                        "id" => <small>string</small><span>(1)</span> "1"
                        "label" => <small>string</small><span>(60)</span> "Иван Константинович Айвазовский"
                        "description" => <small>string</small><span>(66)</span> "Выдающийся русский мастер живописи."
                    )</span>
                    "country" => <small>array</small><span>(7)</span> <span>(
                        "id" => <small>string</small><span>(1)</span> "1"
                        "label" => <small>string</small><span>(14)</span> "Абхазия"
                        "fullname" => <small>string</small><span>(35)</span> "Республика Абхазия"
                        "created_by" => <small>string</small><span>(1)</span> "1"
                        "created_at" => <small>string</small><span>(19)</span> "2014-04-01 15:10:13"
                        "approved_by" => <small>string</small><span>(1)</span> "1"
                        "approved_at" => <small>string</small><span>(19)</span> "2014-04-01 15:10:13"
                    )</span>
                    "year" => <small>string</small><span>(4)</span> "1903"
                    "category" => <small>array</small><span>(3)</span> <span>(
                        "id" => <small>string</small><span>(1)</span> "1"
                        "label" => <small>string</small><span>(16)</span> "Живопись"
                        "url" => <small>string</small><span>(15)</span> "/lots/zhivopis-"
                    )</span>
                    "subcategory" => <small>array</small><span>(3)</span> <span>(
                        "id" => <small>string</small><span>(1)</span> "1"
                        "label" => <small>string</small><span>(55)</span> "Русская живопись 19 - нач 20 века"
                        "url" => <small>string</small><span>(52)</span> "/lots/zhivopis-/russkaya-zhivopis--19---nach-20-veka"
                    )</span>
                    "width" => <small>string</small><span>(1)</span> "0"
                    "height" => <small>string</small><span>(1)</span> "0"
                    "depth" => <small>string</small><span>(1)</span> "0"
                    "parameters" => <small>array</small><span>(0)</span> 
                    "url" => <small>string</small><span>(67)</span> "/lots/zhivopis-/russkaya-zhivopis--19---nach-20-veka/devyatyj-val-3"
                    "preview" => <small>string</small><span>(41)</span> "/!/static/temp/devjaty-val-ajvazovsky.jpg"
                    "allowActions" => <small>bool</small> FALSE
                )</span>
                2 => <small>array</small><span>(16)</span> <span>(
                    "id" => <small>string</small><span>(1)</span> "1"
                    "title" => <small>string</small><span>(21)</span> "Девятый вал"
                    "description" => <small>string</small><span>(0)</span> ""
                    "price" => <small>string</small><span>(6)</span> "200000"
                    "author" => <small>array</small><span>(3)</span> <span>(
                        "id" => <small>string</small><span>(1)</span> "1"
                        "label" => <small>string</small><span>(60)</span> "Иван Константинович Айвазовский"
                        "description" => <small>string</small><span>(66)</span> "Выдающийся русский мастер живописи."
                    )</span>
                    "country" => <small>array</small><span>(7)</span> <span>(
                        "id" => <small>string</small><span>(1)</span> "1"
                        "label" => <small>string</small><span>(14)</span> "Абхазия"
                        "fullname" => <small>string</small><span>(35)</span> "Республика Абхазия"
                        "created_by" => <small>string</small><span>(1)</span> "1"
                        "created_at" => <small>string</small><span>(19)</span> "2014-04-01 15:10:13"
                        "approved_by" => <small>string</small><span>(1)</span> "1"
                        "approved_at" => <small>string</small><span>(19)</span> "2014-04-01 15:10:13"
                    )</span>
                    "year" => <small>string</small><span>(4)</span> "1903"
                    "category" => <small>array</small><span>(3)</span> <span>(
                        "id" => <small>string</small><span>(1)</span> "1"
                        "label" => <small>string</small><span>(16)</span> "Живопись"
                        "url" => <small>string</small><span>(15)</span> "/lots/zhivopis-"
                    )</span>
                    "subcategory" => <small>array</small><span>(3)</span> <span>(
                        "id" => <small>string</small><span>(1)</span> "1"
                        "label" => <small>string</small><span>(55)</span> "Русская живопись 19 - нач 20 века"
                        "url" => <small>string</small><span>(52)</span> "/lots/zhivopis-/russkaya-zhivopis--19---nach-20-veka"
                    )</span>
                    "width" => <small>string</small><span>(3)</span> "100"
                    "height" => <small>string</small><span>(3)</span> "200"
                    "depth" => <small>string</small><span>(3)</span> "300"
                    "parameters" => <small>array</small><span>(1)</span> <span>(
                        0 => <small>array</small><span>(3)</span> <span>(
                            "id" => <small>string</small><span>(1)</span> "2"
                            "label" => <small>string</small><span>(36)</span> "Стили и направления"
                            "value" => <small>array</small><span>(2)</span> <span>(
                                "id" => <small>string</small><span>(1)</span> "1"
                                "text" => <small>string</small><span>(28)</span> "Абстракционизм"
                            )</span>
                        )</span>
                    )</span>
                    "url" => <small>string</small><span>(65)</span> "/lots/zhivopis-/russkaya-zhivopis--19---nach-20-veka/devyatyj-val"
                    "preview" => <small>string</small><span>(41)</span> "/!/static/temp/devjaty-val-ajvazovsky.jpg"
                    "allowActions" => <small>bool</small> FALSE
                )</span>
            )</span>
        )</span>
        <small>protected</small> _proxy_object => <small>NULL</small>
        <small>protected</small> _proxy_method => <small>NULL</small>
        <small>protected</small> _proxy_result => <small>NULL</small>
        <small>public</small> request => <small>object</small> <span>Request(19)</span> <code>{
            <small>protected</small> _requested_with => <small>NULL</small>
            <small>protected</small> _method => <small>string</small><span>(3)</span> "GET"
            <small>protected</small> _protocol => <small>string</small><span>(8)</span> "HTTP/1.0"
            <small>protected</small> _secure => <small>bool</small> FALSE
            <small>protected</small> _referrer => <small>string</small><span>(31)</span> "http://test.afs.gallery/lots/my"
            <small>protected</small> _route => <small>object</small> <span>Route(5)</span> <code>{
                <small>protected</small> _filters => <small>array</small><span>(0)</span> 
                <small>protected</small> _uri => <small>string</small><span>(7)</span> "(&lt;uri&gt;)"
                <small>protected</small> _regex => <small>array</small><span>(1)</span> <span>(
                    "uri" => <small>string</small><span>(2)</span> ".+"
                )</span>
                <small>protected</small> _defaults => <small>array</small><span>(2)</span> <span>(
                    "controller" => <small>string</small><span>(5)</span> "IFace"
                    "action" => <small>string</small><span>(6)</span> "render"
                )</span>
                <small>protected</small> _route_regex => <small>string</small><span>(22)</span> "#^(?:(?P&lt;uri&gt;.+))?$#uD"
            }</code>
            <small>protected</small> _routes => <small>array</small><span>(0)</span> 
            <small>protected</small> _header => <small>object</small> <span>HTTP_Header(0)</span> <code>{
            }</code>
            <small>protected</small> _body => <small>NULL</small>
            <small>protected</small> _directory => <small>string</small><span>(0)</span> ""
            <small>protected</small> _controller => <small>string</small><span>(5)</span> "IFace"
            <small>protected</small> _action => <small>string</small><span>(6)</span> "render"
            <small>protected</small> _uri => <small>string</small><span>(0)</span> ""
            <small>protected</small> _external => <small>bool</small> FALSE
            <small>protected</small> _params => <small>array</small><span>(0)</span> 
            <small>protected</small> _get => <small>array</small><span>(0)</span> 
            <small>protected</small> _post => <small>array</small><span>(0)</span> 
            <small>protected</small> _cookies => <small>array</small><span>(2)</span> <span>(
                "session" => <small>NULL</small>
                "lang" => <small>string</small><span>(2)</span> "ru"
            )</span>
            <small>protected</small> _client => <small>object</small> <span>Request_Client_Internal(9)</span> <code>{
                <small>protected</small> _previous_environment => <small>NULL</small>
                <small>protected</small> _cache => <small>NULL</small>
                <small>protected</small> _follow => <small>bool</small> FALSE
                <small>protected</small> _follow_headers => <small>array</small><span>(1)</span> <span>(
                    0 => <small>string</small><span>(13)</span> "Authorization"
                )</span>
                <small>protected</small> _strict_redirect => <small>bool</small> TRUE
                <small>protected</small> _header_callbacks => <small>array</small><span>(1)</span> <span>(
                    "Location" => <small>string</small><span>(34)</span> "Request_Client::on_header_location"
                )</span>
                <small>protected</small> _max_callback_depth => <small>integer</small> 5
                <small>protected</small> _callback_depth => <small>integer</small> 1
                <small>protected</small> _callback_params => <small>array</small><span>(0)</span> 
            }</code>
        }</code>
        <small>public</small> response => <small>object</small> <span>Response(8)</span> <code>{
            <small>protected</small> _content_type => <small>integer</small> 1
            <small>protected</small> _wrapper => <small>NULL</small>
            <small>protected</small> _request => <small>NULL</small>
            <small>protected</small> _status => <small>integer</small> 200
            <small>protected</small> _header => <small>object</small> <span>HTTP_Header(0)</span> <code>{
            }</code>
            <small>protected</small> _body => <small>string</small><span>(0)</span> ""
            <small>protected</small> _cookies => <small>array</small><span>(0)</span> 
            <small>protected</small> _protocol => <small>NULL</small>
        }</code>
    }</code>
    "lots_list_url" => <small>string</small><span>(5)</span> "/lots"
    "interesting_authors" => <small>array</small><span>(2)</span> <span>(
        0 => <small>array</small><span>(3)</span> <span>(
            "name" => <small>string</small><span>(60)</span> "Иван Константинович Айвазовский"
            "url" => <small>string</small><span>(41)</span> "/authors/ivan-konstantinovich-ajvazovskij"
            "lots_count" => <small>string</small><span>(1)</span> "3"
        )</span>
        1 => <small>array</small><span>(3)</span> <span>(
            "name" => <small>string</small><span>(38)</span> "Иван Иванович Шишкин"
            "url" => <small>string</small><span>(32)</span> "/authors/ivan-ivanovich-shishkin"
            "lots_count" => <small>string</small><span>(1)</span> "3"
        )</span>
    )</span>
    "_this" => <small>object</small> <span>View_IFace(4)</span> <code>{
        <small>protected</small> _iface => <small>object</small> <span>IFace_Index(4)</span> <code>{
            <small>protected</small> _codename => <small>string</small><span>(5)</span> "Index"
            <small>protected</small> _model => <small>object</small> <span>Model_IFace(34)</span> <code>{
                <small>protected</small> _has_one => <small>array</small><span>(0)</span> 
                <small>protected</small> _belongs_to => <small>array</small><span>(2)</span> <span>(
                    "parent" => <small>array</small><span>(2)</span> <span>(
                        "foreign_key" => <small>string</small><span>(9)</span> "parent_id"
                        "model" => <small>string</small><span>(5)</span> "IFace"
                    )</span>
                    "layout" => <small>array</small><span>(2)</span> <span>(
                        "foreign_key" => <small>string</small><span>(9)</span> "layout_id"
                        "model" => <small>string</small><span>(6)</span> "Layout"
                    )</span>
                )</span>
                <small>protected</small> _has_many => <small>array</small><span>(0)</span> 
                <small>protected</small> _load_with => <small>array</small><span>(0)</span> 
                <small>protected</small> _validation => <small>NULL</small>
                <small>protected</small> _object => <small>array</small><span>(7)</span> <span>(
                    "id" => <small>string</small><span>(1)</span> "1"
                    "parent_id" => <small>NULL</small>
                    "is_default" => <small>string</small><span>(1)</span> "1"
                    "codename" => <small>string</small><span>(5)</span> "Index"
                    "uri" => <small>string</small><span>(5)</span> "index"
                    "title" => <small>string</small><span>(31)</span> "Главная страница"
                    "layout_id" => <small>NULL</small>
                )</span>
                <small>protected</small> _changed => <small>array</small><span>(0)</span> 
                <small>protected</small> _original_values => <small>array</small><span>(7)</span> <span>(
                    "id" => <small>string</small><span>(1)</span> "1"
                    "parent_id" => <small>NULL</small>
                    "is_default" => <small>string</small><span>(1)</span> "1"
                    "codename" => <small>string</small><span>(5)</span> "Index"
                    "uri" => <small>string</small><span>(5)</span> "index"
                    "title" => <small>string</small><span>(31)</span> "Главная страница"
                    "layout_id" => <small>NULL</small>
                )</span>
                <small>protected</small> _related => <small>array</small><span>(1)</span> <span>(
                    "layout" => <small>object</small> <span>Model_Layout(34)</span> <code>{
                        <small>protected</small> _has_one => <small>array</small><span>(0)</span> 
                        <small>protected</small> _belongs_to => <small>array</small><span>(0)</span> 
                        <small>protected</small> _has_many => <small>array</small><span>(1)</span> <span>(
                            "iface" => <small>array</small><span>(4)</span> <span>(
                                "foreign_key" => <small>string</small><span>(9)</span> "layout_id"
                                "through" => <small>NULL</small>
                                "far_key" => <small>string</small><span>(8)</span> "iface_id"
                                "model" => <small>string</small><span>(5)</span> "IFace"
                            )</span>
                        )</span>
                        <small>protected</small> _load_with => <small>array</small><span>(0)</span> 
                        <small>protected</small> _validation => <small>NULL</small>
                        <small>protected</small> _object => <small>array</small><span>(4)</span> <span>(
                            "id" => <small>string</small><span>(1)</span> "1"
                            "codename" => <small>string</small><span>(5)</span> "basic"
                            "title" => <small>string</small><span>(27)</span> "Базовый шаблон"
                            "is_default" => <small>string</small><span>(1)</span> "1"
                        )</span>
                        <small>protected</small> _changed => <small>array</small><span>(0)</span> 
                        <small>protected</small> _original_values => <small>array</small><span>(4)</span> <span>(
                            "id" => <small>string</small><span>(1)</span> "1"
                            "codename" => <small>string</small><span>(5)</span> "basic"