<style type="text/css">
#kohana_error { background: #ddd; font-size: 1em; font-family:sans-serif; text-align: left; color: #111; }
#kohana_error h1,
#kohana_error h2 { margin: 0; padding: 1em; font-size: 1em; font-weight: normal; background: #911; color: #fff; }
	#kohana_error h1 a,
	#kohana_error h2 a { color: #fff; }
#kohana_error h2 { background: #222; }
#kohana_error h3 { margin: 0; padding: 0.4em 0 0; font-size: 1em; font-weight: normal; }
#kohana_error p { margin: 0; padding: 0.2em 0; }
#kohana_error a { color: #1b323b; }
#kohana_error pre { overflow: auto; white-space: pre-wrap; }
#kohana_error table { width: 100%; display: block; margin: 0 0 0.4em; padding: 0; border-collapse: collapse; background: #fff; }
	#kohana_error table td { border: solid 1px #ddd; text-align: left; vertical-align: top; padding: 0.4em; }
#kohana_error div.content { padding: 0.4em 1em 1em; overflow: hidden; }
#kohana_error pre.source { margin: 0 0 1em; padding: 0.4em; background: #fff; border: dotted 1px #b7c680; line-height: 1.2em; }
	#kohana_error pre.source span.line { display: block; }
	#kohana_error pre.source span.highlight { background: #f0eb96; }
		#kohana_error pre.source span.line span.number { color: #666; }
#kohana_error ol.trace { display: block; margin: 0 0 0 2em; padding: 0; list-style: decimal; }
	#kohana_error ol.trace li { margin: 0; padding: 0; }
.js .collapsed { display: none; }
</style>
<script type="text/javascript">
document.documentElement.className = document.documentElement.className + ' js';
function koggle(elem)
{
	elem = document.getElementById(elem);

	if (elem.style && elem.style['display'])
		// Only works with the "style" attr
		var disp = elem.style['display'];
	else if (elem.currentStyle)
		// For MSIE, naturally
		var disp = elem.currentStyle['display'];
	else if (window.getComputedStyle)
		// For most other browsers
		var disp = document.defaultView.getComputedStyle(elem, null).getPropertyValue('display');

	// Toggle the state of the "display" style
	elem.style.display = disp == 'block' ? 'none' : 'block';
	return false;
}
</script>
<div id="kohana_error">
	<h1><span class="type">Twig_Error_Runtime [ 0 ]:</span> <span class="message">Key &quot;title&quot; for array with keys &quot;id, label, value&quot; does not exist in &quot;widgets/Lot/List/default&quot; at line 51</span></h1>
	<div id="error5346a809dbf17" class="content">
		<p><span class="file">MODPATH/twig/vendor/twig/lib/Twig/Template.php [ 377 ]</span></p>
		<pre class="source"><code><span class="line"><span class="number">372</span>                 }
</span><span class="line"><span class="number">373</span> 
</span><span class="line"><span class="number">374</span>                 if (is_object($object)) {
</span><span class="line"><span class="number">375</span>                     throw new Twig_Error_Runtime(sprintf('Key "%s" in object (with ArrayAccess) of type "%s" does not exist', $arrayItem, get_class($object)), -1, $this-&gt;getTemplateName());
</span><span class="line"><span class="number">376</span>                 } elseif (is_array($object)) {
</span><span class="line highlight"><span class="number">377</span>                     throw new Twig_Error_Runtime(sprintf('Key "%s" for array with keys "%s" does not exist', $arrayItem, implode(', ', array_keys($object))), -1, $this-&gt;getTemplateName());
</span><span class="line"><span class="number">378</span>                 } elseif (Twig_Template::ARRAY_CALL === $type) {
</span><span class="line"><span class="number">379</span>                     throw new Twig_Error_Runtime(sprintf('Impossible to access a key ("%s") on a %s variable ("%s")', $item, gettype($object), $object), -1, $this-&gt;getTemplateName());
</span><span class="line"><span class="number">380</span>                 } else {
</span><span class="line"><span class="number">381</span>                     throw new Twig_Error_Runtime(sprintf('Impossible to access an attribute ("%s") on a %s variable ("%s")', $item, gettype($object), $object), -1, $this-&gt;getTemplateName());
</span><span class="line"><span class="number">382</span>                 }
</span></code></pre>		<ol class="trace">
					<li>
				<p>
					<span class="file">
													<a href="#error5346a809dbf17source0" onclick="return koggle('error5346a809dbf17source0')">MODPATH/twig/cache/8f/78/8da92b38e3a15161f217f57e1b3557e28aa30d8d608297d7c718dd7d5e17.php [ 104 ]</a>
											</span>
					&raquo;
					Twig_Template->getAttribute(<a href="#error5346a809dbf17args0" onclick="return koggle('error5346a809dbf17args0')">arguments</a>)
				</p>
								<div id="error5346a809dbf17args0" class="collapsed">
					<table cellspacing="0">
											<tr>
							<td><code>0</code></td>
							<td><pre><small>array</small><span>(3)</span> <span>(
    "id" => <small>string</small><span>(1)</span> "2"
    "label" => <small>string</small><span>(36)</span> "Стили и направления"
    "value" => <small>array</small><span>(2)</span> <span>(
        "id" => <small>string</small><span>(1)</span> "1"
        "text" => <small>string</small><span>(28)</span> "Абстракционизм"
    )</span>
)</span></pre></td>
						</tr>
											<tr>
							<td><code>1</code></td>
							<td><pre><small>string</small><span>(5)</span> "title"</pre></td>
						</tr>
										</table>
				</div>
													<pre id="error5346a809dbf17source0" class="source collapsed"><code><pre class="source"><code><span class="line"><span class="number"> 99</span>             $context['_parent'] = (array) $context;
</span><span class="line"><span class="number">100</span>             $context['_seq'] = twig_ensure_traversable($this-&gt;getAttribute((isset($context["item"]) ? $context["item"] : $this-&gt;getContext($context, "item")), "parameters"));
</span><span class="line"><span class="number">101</span>             foreach ($context['_seq'] as $context["_key"] =&gt; $context["param"]) {
</span><span class="line"><span class="number">102</span>                 // line 51
</span><span class="line"><span class="number">103</span>                 echo "                    &lt;li&gt;";
</span><span class="line highlight"><span class="number">104</span>                 echo twig_escape_filter($this-&gt;env, $this-&gt;getAttribute((isset($context["param"]) ? $context["param"] : $this-&gt;getContext($context, "param")), "title"), "html", null, true);
</span><span class="line"><span class="number">105</span>                 echo ": ";
</span><span class="line"><span class="number">106</span>                 echo twig_escape_filter($this-&gt;env, $this-&gt;getAttribute((isset($context["param"]) ? $context["param"] : $this-&gt;getContext($context, "param")), "value"), "html", null, true);
</span><span class="line"><span class="number">107</span>                 echo "&lt;/li&gt;
</span><span class="line"><span class="number">108</span>                 ";
</span><span class="line"><span class="number">109</span>             }
</span></code></pre></code></pre>
							</li>
								<li>
				<p>
					<span class="file">
													<a href="#error5346a809dbf17source1" onclick="return koggle('error5346a809dbf17source1')">MODPATH/twig/vendor/twig/lib/Twig/Template.php [ 276 ]</a>
											</span>
					&raquo;
					__TwigTemplate_8f788da92b38e3a15161f217f57e1b3557e28aa30d8d608297d7c718dd7d5e17->doDisplay(<a href="#error5346a809dbf17args1" onclick="return koggle('error5346a809dbf17args1')">arguments</a>)
				</p>
								<div id="error5346a809dbf17args1" class="collapsed">
					<table cellspacing="0">
											<tr>
							<td><code>0</code></td>
							<td><pre><small>array</small><span>(1)</span> <span>(
    "lot_items" => <small>array</small><span>(3)</span> <span>(
        0 => <small>array</small><span>(16)</span> <span>(
            "id" => <small>string</small><span>(1)</span> "4"
            "title" => <small>string</small><span>(23)</span> "Девятый вал 2"
            "description" => <small>string</small><span>(0)</span> ""
            "price" => <small>string</small><span>(6)</span> "200000"
            "author" => <small>array</small><span>(3)</span> <span>(
                "id" => <small>string</small><span>(1)</span> "1"
                "label" => <small>string</small><span>(60)</span> "Иван Константинович Айвазовский"
                "description" => <small>string</small><span>(66)</span> "Выдающийся русский мастер живописи."
            )</span>
            "country" => <small>array</small><span>(7)</span> <span>(
                "id" => <small>string</small><span>(1)</span> "1"
                "label" => <small>string</small><span>(14)</span> "Абхазия"
                "fullname" => <small>string</small><span>(35)</span> "Республика Абхазия"
                "created_by" => <small>string</small><span>(1)</span> "1"
                "created_at" => <small>string</small><span>(19)</span> "2014-04-01 15:10:13"
                "approved_by" => <small>string</small><span>(1)</span> "1"
                "approved_at" => <small>string</small><span>(19)</span> "2014-04-01 15:10:13"
            )</span>
            "year" => <small>string</small><span>(4)</span> "1903"
            "category" => <small>array</small><span>(3)</span> <span>(
                "id" => <small>string</small><span>(1)</span> "1"
                "label" => <small>string</small><span>(16)</span> "Живопись"
                "url" => <small>string</small><span>(15)</span> "/lots/zhivopis-"
            )</span>
            "subcategory" => <small>array</small><span>(3)</span> <span>(
                "id" => <small>string</small><span>(1)</span> "1"
                "label" => <small>string</small><span>(55)</span> "Русская живопись 19 - нач 20 века"
                "url" => <small>string</small><span>(52)</span> "/lots/zhivopis-/russkaya-zhivopis--19---nach-20-veka"
            )</span>
            "width" => <small>string</small><span>(1)</span> "0"
            "height" => <small>string</small><span>(1)</span> "0"
            "depth" => <small>string</small><span>(1)</span> "0"
            "parameters" => <small>array</small><span>(0)</span> 
            "url" => <small>string</small><span>(67)</span> "/lots/zhivopis-/russkaya-zhivopis--19---nach-20-veka/devyatyj-val-2"
            "preview" => <small>string</small><span>(41)</span> "/!/static/temp/devjaty-val-ajvazovsky.jpg"
            "allowActions" => <small>bool</small> FALSE
        )</span>
        1 => <small>array</small><span>(16)</span> <span>(
            "id" => <small>string</small><span>(1)</span> "1"
            "title" => <small>string</small><span>(21)</span> "Девятый вал"
            "description" => <small>string</small><span>(0)</span> ""
            "price" => <small>string</small><span>(6)</span> "200000"
            "author" => <small>array</small><span>(3)</span> <span>(
                "id" => <small>string</small><span>(1)</span> "1"
                "label" => <small>string</small><span>(60)</span> "Иван Константинович Айвазовский"
                "description" => <small>string</small><span>(66)</span> "Выдающийся русский мастер живописи."
            )</span>
            "country" => <small>array</small><span>(7)</span> <span>(
                "id" => <small>string</small><span>(1)</span> "1"
                "label" => <small>string</small><span>(14)</span> "Абхазия"
                "fullname" => <small>string</small><span>(35)</span> "Республика Абхазия"
                "created_by" => <small>string</small><span>(1)</span> "1"
                "created_at" => <small>string</small><span>(19)</span> "2014-04-01 15:10:13"
                "approved_by" => <small>string</small><span>(1)</span> "1"
                "approved_at" => <small>string</small><span>(19)</span> "2014-04-01 15:10:13"
            )</span>
            "year" => <small>string</small><span>(4)</span> "1903"
            "category" => <small>array</small><span>(3)</span> <span>(
                "id" => <small>string</small><span>(1)</span> "1"
                "label" => <small>string</small><span>(16)</span> "Живопись"
                "url" => <small>string</small><span>(15)</span> "/lots/zhivopis-"
            )</span>
            "subcategory" => <small>array</small><span>(3)</span> <span>(
                "id" => <small>string</small><span>(1)</span> "1"
                "label" => <small>string</small><span>(55)</span> "Русская живопись 19 - нач 20 века"
                "url" => <small>string</small><span>(52)</span> "/lots/zhivopis-/russkaya-zhivopis--19---nach-20-veka"
            )</span>
            "width" => <small>string</small><span>(3)</span> "100"
            "height" => <small>string</small><span>(3)</span> "200"
            "depth" => <small>string</small><span>(3)</span> "300"
            "parameters" => <small>array</small><span>(1)</span> <span>(
                0 => <small>array</small><span>(3)</span> <span>(
                    "id" => <small>string</small><span>(1)</span> "2"
                    "label" => <small>string</small><span>(36)</span> "Стили и направления"
                    "value" => <small>array</small><span>(2)</span> <span>(
                        "id" => <small>string</small><span>(1)</span> "1"
                        "text" => <small>string</small><span>(28)</span> "Абстракционизм"
                    )</span>
                )</span>
            )</span>
            "url" => <small>string</small><span>(65)</span> "/lots/zhivopis-/russkaya-zhivopis--19---nach-20-veka/devyatyj-val"
            "preview" => <small>string</small><span>(41)</span> "/!/static/temp/devjaty-val-ajvazovsky.jpg"
            "allowActions" => <small>bool</small> FALSE
        )</span>
        2 => <small>array</small><span>(16)</span> <span>(
            "id" => <small>string</small><span>(1)</span> "6"
            "title" => <small>string</small><span>(23)</span> "Девятый вал 3"
            "description" => <small>string</small><span>(0)</span> ""
            "price" => <small>string</small><span>(6)</span> "200000"
            "author" => <small>array</small><span>(3)</span> <span>(
                "id" => <small>string</small><span>(1)</span> "1"
                "label" => <small>string</small><span>(60)</span> "Иван Константинович Айвазовский"
                "description" => <small>string</small><span>(66)</span> "Выдающийся русский мастер живописи."
            )</span>
            "country" => <small>array</small><span>(7)</span> <span>(
                "id" => <small>string</small><span>(1)</span> "1"
                "label" => <small>string</small><span>(14)</span> "Абхазия"
                "fullname" => <small>string</small><span>(35)</span> "Республика Абхазия"
                "created_by" => <small>string</small><span>(1)</span> "1"
                "created_at" => <small>string</small><span>(19)</span> "2014-04-01 15:10:13"
                "approved_by" => <small>string</small><span>(1)</span> "1"
                "approved_at" => <small>string</small><span>(19)</span> "2014-04-01 15:10:13"
            )</span>
            "year" => <small>string</small><span>(4)</span> "1903"
            "category" => <small>array</small><span>(3)</span> <span>(
                "id" => <small>string</small><span>(1)</span> "1"
                "label" => <small>string</small><span>(16)</span> "Живопись"
                "url" => <small>string</small><span>(15)</span> "/lots/zhivopis-"
            )</span>
            "subcategory" => <small>array</small><span>(3)</span> <span>(
                "id" => <small>string</small><span>(1)</span> "1"
                "label" => <small>string</small><span>(55)</span> "Русская живопись 19 - нач 20 века"
                "url" => <small>string</small><span>(52)</span> "/lots/zhivopis-/russkaya-zhivopis--19---nach-20-veka"
            )</span>
            "width" => <small>string</small><span>(1)</span> "0"
            "height" => <small>string</small><span>(1)</span> "0"
            "depth" => <small>string</small><span>(1)</span> "0"
            "parameters" => <small>array</small><span>(0)</span> 
            "url" => <small>string</small><span>(67)</span> "/lots/zhivopis-/russkaya-zhivopis--19---nach-20-veka/devyatyj-val-3"
            "preview" => <small>string</small><span>(41)</span> "/!/static/temp/devjaty-val-ajvazovsky.jpg"
            "allowActions" => <small>bool</small> FALSE
        )</span>
    )</span>
)</span></pre></td>
						</tr>
											<tr>
							<td><code>1</code></td>
							<td><pre><small>array</small><span>(0)</span> </pre></td>
						</tr>
										</table>
				</div>
													<pre id="error5346a809dbf17source1" class="source collapsed"><code><pre class="source"><code><span class="line"><span class="number">271</span>     }
</span><span class="line"><span class="number">272</span> 
</span><span class="line"><span class="number">273</span>     protected function displayWithErrorHandling(array $context, array $blocks = array())
</span><span class="line"><span class="number">274</span>     {
</span><span class="line"><span class="number">275</span>         try {
</span><span class="line highlight"><span class="number">276</span>             $this-&gt;doDisplay($context, $blocks);
</span><span class="line"><span class="number">277</span>         } catch (Twig_Error $e) {
</span><span class="line"><span class="number">278</span>             if (!$e-&gt;getTemplateFile()) {
</span><span class="line"><span class="number">279</span>                 $e-&gt;setTemplateFile($this-&gt;getTemplateName());
</span><span class="line"><span class="number">280</span>             }
</span><span class="line"><span class="number">281</span> 
</span></code></pre></code></pre>
							</li>
								<li>
				<p>
					<span class="file">
													<a href="#error5346a809dbf17source2" onclick="return koggle('error5346a809dbf17source2')">MODPATH/twig/vendor/twig/lib/Twig/Template.php [ 250 ]</a>
											</span>
					&raquo;
					Twig_Template->displayWithErrorHandling(<a href="#error5346a809dbf17args2" onclick="return koggle('error5346a809dbf17args2')">arguments</a>)
				</p>
								<div id="error5346a809dbf17args2" class="collapsed">
					<table cellspacing="0">
											<tr>
							<td><code>0</code></td>
							<td><pre><small>array</small><span>(1)</span> <span>(
    "lot_items" => <small>array</small><span>(3)</span> <span>(
        0 => <small>array</small><span>(16)</span> <span>(
            "id" => <small>string</small><span>(1)</span> "4"
            "title" => <small>string</small><span>(23)</span> "Девятый вал 2"
            "description" => <small>string</small><span>(0)</span> ""
            "price" => <small>string</small><span>(6)</span> "200000"
            "author" => <small>array</small><span>(3)</span> <span>(
                "id" => <small>string</small><span>(1)</span> "1"
                "label" => <small>string</small><span>(60)</span> "Иван Константинович Айвазовский"
                "description" => <small>string</small><span>(66)</span> "Выдающийся русский мастер живописи."
            )</span>
            "country" => <small>array</small><span>(7)</span> <span>(
                "id" => <small>string</small><span>(1)</span> "1"
                "label" => <small>string</small><span>(14)</span> "Абхазия"
                "fullname" => <small>string</small><span>(35)</span> "Республика Абхазия"
                "created_by" => <small>string</small><span>(1)</span> "1"
                "created_at" => <small>string</small><span>(19)</span> "2014-04-01 15:10:13"
                "approved_by" => <small>string</small><span>(1)</span> "1"
                "approved_at" => <small>string</small><span>(19)</span> "2014-04-01 15:10:13"
            )</span>
            "year" => <small>string</small><span>(4)</span> "1903"
            "category" => <small>array</small><span>(3)</span> <span>(
                "id" => <small>string</small><span>(1)</span> "1"
                "label" => <small>string</small><span>(16)</span> "Живопись"
                "url" => <small>string</small><span>(15)</span> "/lots/zhivopis-"
            )</span>
            "subcategory" => <small>array</small><span>(3)</span> <span>(
                "id" => <small>string</small><span>(1)</span> "1"
                "label" => <small>string</small><span>(55)</span> "Русская живопись 19 - нач 20 века"
                "url" => <small>string</small><span>(52)</span> "/lots/zhivopis-/russkaya-zhivopis--19---nach-20-veka"
            )</span>
            "width" => <small>string</small><span>(1)</span> "0"
            "height" => <small>string</small><span>(1)</span> "0"
            "depth" => <small>string</small><span>(1)</span> "0"
            "parameters" => <small>array</small><span>(0)</span> 
            "url" => <small>string</small><span>(67)</span> "/lots/zhivopis-/russkaya-zhivopis--19---nach-20-veka/devyatyj-val-2"
            "preview" => <small>string</small><span>(41)</span> "/!/static/temp/devjaty-val-ajvazovsky.jpg"
            "allowActions" => <small>bool</small> FALSE
        )</span>
        1 => <small>array</small><span>(16)</span> <span>(
            "id" => <small>string</small><span>(1)</span> "1"
            "title" => <small>string</small><span>(21)</span> "Девятый вал"
            "description" => <small>string</small><span>(0)</span> ""
            "price" => <small>string</small><span>(6)</span> "200000"
            "author" => <small>array</small><span>(3)</span> <span>(
                "id" => <small>string</small><span>(1)</span> "1"
                "label" => <small>string</small><span>(60)</span> "Иван Константинович Айвазовский"
                "description" => <small>string</small><span>(66)</span> "Выдающийся русский мастер живописи."
            )</span>
            "country" => <small>array</small><span>(7)</span> <span>(
                "id" => <small>string</small><span>(1)</span> "1"
                "label" => <small>string</small><span>(14)</span> "Абхазия"
                "fullname" => <small>string</small><span>(35)</span> "Республика Абхазия"
                "created_by" => <small>string</small><span>(1)</span> "1"
                "created_at" => <small>string</small><span>(19)</span> "2014-04-01 15:10:13"
                "approved_by" => <small>string</small><span>(1)</span> "1"
                "approved_at" => <small>string</small><span>(19)</span> "2014-04-01 15:10:13"
            )</span>
            "year" => <small>string</small><span>(4)</span> "1903"
            "category" => <small>array</small><span>(3)</span> <span>(
                "id" => <small>string</small><span>(1)</span> "1"
                "label" => <small>string</small><span>(16)</span> "Живопись"
                "url" => <small>string</small><span>(15)</span> "/lots/zhivopis-"
            )</span>
            "subcategory" => <small>array</small><span>(3)</span> <span>(
                "id" => <small>string</small><span>(1)</span> "1"
                "label" => <small>string</small><span>(55)</span> "Русская живопись 19 - нач 20 века"
                "url" => <small>string</small><span>(52)</span> "/lots/zhivopis-/russkaya-zhivopis--19---nach-20-veka"
            )</span>
            "width" => <small>string</small><span>(3)</span> "100"
            "height" => <small>string</small><span>(3)</span> "200"
            "depth" => <small>string</small><span>(3)</span> "300"
            "parameters" => <small>array</small><span>(1)</span> <span>(
                0 => <small>array</small><span>(3)</span> <span>(
                    "id" => <small>string</small><span>(1)</span> "2"
                    "label" => <small>string</small><span>(36)</span> "Стили и направления"
                    "value" => <small>array</small><span>(2)</span> <span>(
                        "id" => <small>string</small><span>(1)</span> "1"
                        "text" => <small>string</small><span>(28)</span> "Абстракционизм"
                    )</span>
                )</span>
            )</span>
            "url" => <small>string</small><span>(65)</span> "/lots/zhivopis-/russkaya-zhivopis--19---nach-20-veka/devyatyj-val"
            "preview" => <small>string</small><span>(41)</span> "/!/static/temp/devjaty-val-ajvazovsky.jpg"
            "allowActions" => <small>bool</small> FALSE
        )</span>
        2 => <small>array</small><span>(16)</span> <span>(
            "id" => <small>string</small><span>(1)</span> "6"
            "title" => <small>string</small><span>(23)</span> "Девятый вал 3"
            "description" => <small>string</small><span>(0)</span> ""
            "price" => <small>string</small><span>(6)</span> "200000"
            "author" => <small>array</small><span>(3)</span> <span>(
                "id" => <small>string</small><span>(1)</span> "1"
                "label" => <small>string</small><span>(60)</span> "Иван Константинович Айвазовский"
                "description" => <small>string</small><span>(66)</span> "Выдающийся русский мастер живописи."
            )</span>
            "country" => <small>array</small><span>(7)</span> <span>(
                "id" => <small>string</small><span>(1)</span> "1"
                "label" => <small>string</small><span>(14)</span> "Абхазия"
                "fullname" => <small>string</small><span>(35)</span> "Республика Абхазия"
                "created_by" => <small>string</small><span>(1)</span> "1"
                "created_at" => <small>string</small><span>(19)</span> "2014-04-01 15:10:13"
                "approved_by" => <small>string</small><span>(1)</span> "1"
                "approved_at" => <small>string</small><span>(19)</span> "2014-04-01 15:10:13"
            )</span>
            "year" => <small>string</small><span>(4)</span> "1903"
            "category" => <small>array</small><span>(3)</span> <span>(
                "id" => <small>string</small><span>(1)</span> "1"
                "label" => <small>string</small><span>(16)</span> "Живопись"
                "url" => <small>string</small><span>(15)</span> "/lots/zhivopis-"
            )</span>
            "subcategory" => <small>array</small><span>(3)</span> <span>(
                "id" => <small>string</small><span>(1)</span> "1"
                "label" => <small>string</small><span>(55)</span> "Русская живопись 19 - нач 20 века"
                "url" => <small>string</small><span>(52)</span> "/lots/zhivopis-/russkaya-zhivopis--19---nach-20-veka"
            )</span>
            "width" => <small>string</small><span>(1)</span> "0"
            "height" => <small>string</small><span>(1)</span> "0"
            "depth" => <small>string</small><span>(1)</span> "0"
            "parameters" => <small>array</small><span>(0)</span> 
            "url" => <small>string</small><span>(67)</span> "/lots/zhivopis-/russkaya-zhivopis--19---nach-20-veka/devyatyj-val-3"
            "preview" => <small>string</small><span>(41)</span> "/!/static/temp/devjaty-val-ajvazovsky.jpg"
            "allowActions" => <small>bool</small> FALSE
        )</span>
    )</span>
)</span></pre></td>
						</tr>
											<tr>
							<td><code>1</code></td>
							<td><pre><small>array</small><span>(0)</span> </pre></td>
						</tr>
										</table>
				</div>
													<pre id="error5346a809dbf17source2" class="source collapsed"><code><pre class="source"><code><span class="line"><span class="number">245</span>     /**
</span><span class="line"><span class="number">246</span>      * {@inheritdoc}
</span><span class="line"><span class="number">247</span>      */
</span><span class="line"><span class="number">248</span>     public function display(array $context, array $blocks = array())
</span><span class="line"><span class="number">249</span>     {
</span><span class="line highlight"><span class="number">250</span>         $this-&gt;displayWithErrorHandling($this-&gt;env-&gt;mergeGlobals($context), $blocks);
</span><span class="line"><span class="number">251</span>     }
</span><span class="line"><span class="number">252</span> 
</span><span class="line"><span class="number">253</span>     /**
</span><span class="line"><span class="number">254</span>      * {@inheritdoc}
</span><span class="line"><span class="number">255</span>      */
</span></code></pre></code></pre>
							</li>
								<li>
				<p>
					<span class="file">
													<a href="#error5346a809dbf17source3" onclick="return koggle('error5346a809dbf17source3')">MODPATH/twig/vendor/twig/lib/Twig/Template.php [ 261 ]</a>
											</span>
					&raquo;
					Twig_Template->display(<a href="#error5346a809dbf17args3" onclick="return koggle('error5346a809dbf17args3')">arguments</a>)
				</p>
								<div id="error5346a809dbf17args3" class="collapsed">
					<table cellspacing="0">
											<tr>
							<td><code>0</code></td>
							<td><pre><small>array</small><span>(1)</span> <span>(
    "lot_items" => <small>array</small><span>(3)</span> <span>(
        0 => <small>array</small><span>(16)</span> <span>(
            "id" => <small>string</small><span>(1)</span> "4"
            "title" => <small>string</small><span>(23)</span> "Девятый вал 2"
            "description" => <small>string</small><span>(0)</span> ""
            "price" => <small>string</small><span>(6)</span> "200000"
            "author" => <small>array</small><span>(3)</span> <span>(
                "id" => <small>string</small><span>(1)</span> "1"
                "label" => <small>string</small><span>(60)</span> "Иван Константинович Айвазовский"
                "description" => <small>string</small><span>(66)</span> "Выдающийся русский мастер живописи."
            )</span>
            "country" => <small>array</small><span>(7)</span> <span>(
                "id" => <small>string</small><span>(1)</span> "1"
                "label" => <small>string</small><span>(14)</span> "Абхазия"
                "fullname" => <small>string</small><span>(35)</span> "Республика Абхазия"
                "created_by" => <small>string</small><span>(1)</span> "1"