<style type="text/css">
#kohana_error { background: #ddd; font-size: 1em; font-family:sans-serif; text-align: left; color: #111; }
#kohana_error h1,
#kohana_error h2 { margin: 0; padding: 1em; font-size: 1em; font-weight: normal; background: #911; color: #fff; }
	#kohana_error h1 a,
	#kohana_error h2 a { color: #fff; }
#kohana_error h2 { background: #222; }
#kohana_error h3 { margin: 0; padding: 0.4em 0 0; font-size: 1em; font-weight: normal; }
#kohana_error p { margin: 0; padding: 0.2em 0; }
#kohana_error a { color: #1b323b; }
#kohana_error pre { overflow: auto; white-space: pre-wrap; }
#kohana_error table { width: 100%; display: block; margin: 0 0 0.4em; padding: 0; border-collapse: collapse; background: #fff; }
	#kohana_error table td { border: solid 1px #ddd; text-align: left; vertical-align: top; padding: 0.4em; }
#kohana_error div.content { padding: 0.4em 1em 1em; overflow: hidden; }
#kohana_error pre.source { margin: 0 0 1em; padding: 0.4em; background: #fff; border: dotted 1px #b7c680; line-height: 1.2em; }
	#kohana_error pre.source span.line { display: block; }
	#kohana_error pre.source span.highlight { background: #f0eb96; }
		#kohana_error pre.source span.line span.number { color: #666; }
#kohana_error ol.trace { display: block; margin: 0 0 0 2em; padding: 0; list-style: decimal; }
	#kohana_error ol.trace li { margin: 0; padding: 0; }
.js .collapsed { display: none; }
</style>
<script type="text/javascript">
document.documentElement.className = document.documentElement.className + ' js';
function koggle(elem)
{
	elem = document.getElementById(elem);

	if (elem.style && elem.style['display'])
		// Only works with the "style" attr
		var disp = elem.style['display'];
	else if (elem.currentStyle)
		// For MSIE, naturally
		var disp = elem.currentStyle['display'];
	else if (window.getComputedStyle)
		// For most other browsers
		var disp = document.defaultView.getComputedStyle(elem, null).getPropertyValue('display');

	// Toggle the state of the "display" style
	elem.style.display = disp == 'block' ? 'none' : 'block';
	return false;
}
</script>
<div id="kohana_error">
	<h1><span class="type">Kohana_Exception [ 0 ]:</span> <span class="message">The label property does not exist in the Model_Lot_Category class</span></h1>
	<div id="error53469fbb122c0" class="content">
		<p><span class="file">MODPATH/orm/classes/Kohana/ORM.php [ 684 ]</span></p>
		<pre class="source"><code><span class="line"><span class="number">679</span> 
</span><span class="line"><span class="number">680</span> 			return $model-&gt;where($col, '=', $val);
</span><span class="line"><span class="number">681</span> 		}
</span><span class="line"><span class="number">682</span> 		else
</span><span class="line"><span class="number">683</span> 		{
</span><span class="line highlight"><span class="number">684</span> 			throw new Kohana_Exception('The :property property does not exist in the :class class',
</span><span class="line"><span class="number">685</span> 				array(':property' =&gt; $column, ':class' =&gt; get_class($this)));
</span><span class="line"><span class="number">686</span> 		}
</span><span class="line"><span class="number">687</span> 	}
</span><span class="line"><span class="number">688</span> 
</span><span class="line"><span class="number">689</span> 	/**
</span></code></pre>		<ol class="trace">
					<li>
				<p>
					<span class="file">
													<a href="#error53469fbb122c0source0" onclick="return koggle('error53469fbb122c0source0')">/spotman/www/projects/dev/betakiller/sites/art-for-sale/classes/Model/Lot/Category.php [ 25 ]</a>
											</span>
					&raquo;
					Kohana_ORM->get(<a href="#error53469fbb122c0args0" onclick="return koggle('error53469fbb122c0args0')">arguments</a>)
				</p>
								<div id="error53469fbb122c0args0" class="collapsed">
					<table cellspacing="0">
											<tr>
							<td><code>0</code></td>
							<td><pre><small>string</small><span>(5)</span> "label"</pre></td>
						</tr>
										</table>
				</div>
													<pre id="error53469fbb122c0source0" class="source collapsed"><code><pre class="source"><code><span class="line"><span class="number">20</span>     /**
</span><span class="line"><span class="number">21</span>      * @return string
</span><span class="line"><span class="number">22</span>      */
</span><span class="line"><span class="number">23</span>     public function get_label()
</span><span class="line"><span class="number">24</span>     {
</span><span class="line highlight"><span class="number">25</span>         return $this-&gt;get('label');
</span><span class="line"><span class="number">26</span>     }
</span><span class="line"><span class="number">27</span> 
</span><span class="line"><span class="number">28</span>     /**
</span><span class="line"><span class="number">29</span>      * @return string
</span><span class="line"><span class="number">30</span>      */
</span></code></pre></code></pre>
							</li>
								<li>
				<p>
					<span class="file">
													<a href="#error53469fbb122c0source1" onclick="return koggle('error53469fbb122c0source1')">/spotman/www/projects/dev/betakiller/sites/art-for-sale/classes/Model/Lot/Category.php [ 77 ]</a>
											</span>
					&raquo;
					Model_Lot_Category->get_label()
				</p>
													<pre id="error53469fbb122c0source1" class="source collapsed"><code><pre class="source"><code><span class="line"><span class="number">72</span> 
</span><span class="line"><span class="number">73</span>     public function get_api_response_data()
</span><span class="line"><span class="number">74</span>     {
</span><span class="line"><span class="number">75</span>         return array(
</span><span class="line"><span class="number">76</span>             'id'            =&gt; $this-&gt;pk(),
</span><span class="line highlight"><span class="number">77</span>             'label'         =&gt; $this-&gt;get_label(),
</span><span class="line"><span class="number">78</span>             'url'           =&gt; $this-&gt;get_url(),
</span><span class="line"><span class="number">79</span>         );
</span><span class="line"><span class="number">80</span>     }
</span><span class="line"><span class="number">81</span> 
</span><span class="line"><span class="number">82</span> }</span></code></pre></code></pre>
							</li>
								<li>
				<p>
					<span class="file">
													<a href="#error53469fbb122c0source2" onclick="return koggle('error53469fbb122c0source2')">MODPATH/api/classes/API/Response.php [ 135 ]</a>
											</span>
					&raquo;
					Model_Lot_Category->get_api_response_data()
				</p>
													<pre id="error53469fbb122c0source2" class="source collapsed"><code><pre class="source"><code><span class="line"><span class="number">130</span>             if ( $last_modified )
</span><span class="line"><span class="number">131</span>             {
</span><span class="line"><span class="number">132</span>                 $this-&gt;process_last_modified($last_modified);
</span><span class="line"><span class="number">133</span>             }
</span><span class="line"><span class="number">134</span> 
</span><span class="line highlight"><span class="number">135</span>             return $object-&gt;get_api_response_data();
</span><span class="line"><span class="number">136</span>         }
</span><span class="line"><span class="number">137</span>         else if ( $object instanceof Traversable )
</span><span class="line"><span class="number">138</span>         {
</span><span class="line"><span class="number">139</span>             return $this-&gt;convert_result_traversable($object);
</span><span class="line"><span class="number">140</span>         }
</span></code></pre></code></pre>
							</li>
								<li>
				<p>
					<span class="file">
													<a href="#error53469fbb122c0source3" onclick="return koggle('error53469fbb122c0source3')">MODPATH/api/classes/API/Response.php [ 111 ]</a>
											</span>
					&raquo;
					API_Response->convert_result_object(<a href="#error53469fbb122c0args3" onclick="return koggle('error53469fbb122c0args3')">arguments</a>)
				</p>
								<div id="error53469fbb122c0args3" class="collapsed">
					<table cellspacing="0">
											<tr>
							<td><code>0</code></td>
							<td><pre><small>object</small> <span>Model_Lot_Category(34)</span> <code>{
    <small>protected</small> _has_one => <small>array</small><span>(0)</span> 
    <small>protected</small> _belongs_to => <small>array</small><span>(0)</span> 
    <small>protected</small> _has_many => <small>array</small><span>(1)</span> <span>(
        "parameters" => <small>array</small><span>(4)</span> <span>(
            "foreign_key" => <small>string</small><span>(11)</span> "category_id"
            "through" => <small>NULL</small>
            "far_key" => <small>string</small><span>(12)</span> "parameter_id"
            "model" => <small>string</small><span>(13)</span> "Lot_Parameter"
        )</span>
    )</span>
    <small>protected</small> _load_with => <small>array</small><span>(0)</span> 
    <small>protected</small> _validation => <small>NULL</small>
    <small>protected</small> _object => <small>array</small><span>(3)</span> <span>(
        "id" => <small>string</small><span>(1)</span> "1"
        "name" => <small>string</small><span>(16)</span> "Живопись"
        "order" => <small>string</small><span>(2)</span> "10"
    )</span>
    <small>protected</small> _changed => <small>array</small><span>(0)</span> 
    <small>protected</small> _original_values => <small>array</small><span>(3)</span> <span>(
        "id" => <small>string</small><span>(1)</span> "1"
        "name" => <small>string</small><span>(16)</span> "Живопись"
        "order" => <small>string</small><span>(2)</span> "10"
    )</span>
    <small>protected</small> _related => <small>array</small><span>(0)</span> 
    <small>protected</small> _valid => <small>bool</small> TRUE
    <small>protected</small> _loaded => <small>bool</small> TRUE
    <small>protected</small> _saved => <small>bool</small> FALSE
    <small>protected</small> _sorting => <small>NULL</small>
    <small>protected</small> _foreign_key_suffix => <small>string</small><span>(3)</span> "_id"
    <small>protected</small> _object_name => <small>string</small><span>(12)</span> "lot_category"
    <small>protected</small> _object_plural => <small>string</small><span>(14)</span> "lot_categories"
    <small>protected</small> _table_name => <small>string</small><span>(14)</span> "lot_categories"
    <small>protected</small> _table_columns => <small>array</small><span>(3)</span> <span>(
        "id" => <small>array</small><span>(13)</span> <span>(
            "type" => <small>string</small><span>(3)</span> "int"
            "min" => <small>string</small><span>(1)</span> "0"
            "max" => <small>string</small><span>(10)</span> "4294967295"
            "column_name" => <small>string</small><span>(2)</span> "id"
            "column_default" => <small>NULL</small>
            "data_type" => <small>string</small><span>(12)</span> "int unsigned"
            "is_nullable" => <small>bool</small> FALSE
            "ordinal_position" => <small>integer</small> 1
            "display" => <small>string</small><span>(2)</span> "11"
            "comment" => <small>string</small><span>(0)</span> ""
            "extra" => <small>string</small><span>(14)</span> "auto_increment"
            "key" => <small>string</small><span>(3)</span> "PRI"
            "privileges" => <small>string</small><span>(31)</span> "select,insert,update,references"
        )</span>
        "name" => <small>array</small><span>(12)</span> <span>(
            "type" => <small>string</small><span>(6)</span> "string"
            "column_name" => <small>string</small><span>(4)</span> "name"
            "column_default" => <small>NULL</small>
            "data_type" => <small>string</small><span>(7)</span> "varchar"
            "is_nullable" => <small>bool</small> FALSE
            "ordinal_position" => <small>integer</small> 2
            "character_maximum_length" => <small>string</small><span>(2)</span> "32"
            "collation_name" => <small>string</small><span>(15)</span> "utf8_unicode_ci"
            "comment" => <small>string</small><span>(0)</span> ""
            "extra" => <small>string</small><span>(0)</span> ""
            "key" => <small>string</small><span>(0)</span> ""
            "privileges" => <small>string</small><span>(31)</span> "select,insert,update,references"
        )</span>
        "order" => <small>array</small><span>(13)</span> <span>(
            "type" => <small>string</small><span>(3)</span> "int"
            "min" => <small>string</small><span>(1)</span> "0"
            "max" => <small>string</small><span>(10)</span> "4294967295"
            "column_name" => <small>string</small><span>(5)</span> "order"
            "column_default" => <small>NULL</small>
            "data_type" => <small>string</small><span>(12)</span> "int unsigned"
            "is_nullable" => <small>bool</small> FALSE
            "ordinal_position" => <small>integer</small> 3
            "display" => <small>string</small><span>(1)</span> "5"
            "comment" => <small>string</small><span>(0)</span> ""
            "extra" => <small>string</small><span>(0)</span> ""
            "key" => <small>string</small><span>(0)</span> ""
            "privileges" => <small>string</small><span>(31)</span> "select,insert,update,references"
        )</span>
    )</span>
    <small>protected</small> _updated_column => <small>NULL</small>
    <small>protected</small> _created_column => <small>NULL</small>
    <small>protected</small> _serialize_columns => <small>array</small><span>(0)</span> 
    <small>protected</small> _primary_key => <small>string</small><span>(2)</span> "id"
    <small>protected</small> _primary_key_value => <small>string</small><span>(1)</span> "1"
    <small>protected</small> _table_names_plural => <small>bool</small> TRUE
    <small>protected</small> _reload_on_wakeup => <small>bool</small> TRUE
    <small>protected</small> _db => <small>object</small> <span>Database_MySQL(6)</span> <code>{
        <small>protected</small> _connection_id => <small>string</small><span>(40)</span> "dd20b3b4b106505a9e7ee4afe594d0da1f425047"
        <small>protected</small> _identifier => <small>string</small><span>(1)</span> "`"
        <small>public</small> last_query => <small>string</small><span>(142)</span> "SELECT `lot_category`.`id` AS `id`, `lot_category`.`name` AS `name`, `lot_category`.`order` AS `order` FROM `lot_categories` AS &nbsp;&hellip;"
        <small>protected</small> _instance => <small>string</small><span>(7)</span> "default"
        <small>protected</small> _connection => <small>resource</small><span>(mysql link)</span>
        <small>protected</small> _config => <small>array</small><span>(6)</span> <span>(
            "type" => <small>string</small><span>(5)</span> "MySQL"
            "connection" => <small>array</small><span>(3)</span> <span>(
                "hostname" => <small>string</small><span>(9)</span> "localhost"
                "database" => <small>string</small><span>(12)</span> "art_for_sale"
                "persistent" => <small>bool</small> FALSE
            )</span>
            "table_prefix" => <small>string</small><span>(0)</span> ""
            "charset" => <small>string</small><span>(4)</span> "utf8"
            "caching" => <small>bool</small> FALSE
            "profiling" => <small>bool</small> TRUE
        )</span>
    }</code>
    <small>protected</small> _db_group => <small>NULL</small>
    <small>protected</small> _db_applied => <small>array</small><span>(0)</span> 
    <small>protected</small> _db_pending => <small>array</small><span>(0)</span> 
    <small>protected</small> _db_reset => <small>bool</small> TRUE
    <small>protected</small> _db_builder => <small>NULL</small>
    <small>protected</small> _with_applied => <small>array</small><span>(0)</span> 
    <small>protected</small> _cast_data => <small>array</small><span>(0)</span> 
    <small>protected</small> _errors_filename => <small>string</small><span>(12)</span> "lot_category"
}</code></pre></td>
						</tr>
										</table>
				</div>
													<pre id="error53469fbb122c0source3" class="source collapsed"><code><pre class="source"><code><span class="line"><span class="number">106</span> 
</span><span class="line"><span class="number">107</span>     protected function convert_result($model_call_result)
</span><span class="line"><span class="number">108</span>     {
</span><span class="line"><span class="number">109</span>         if ( is_object($model_call_result) )
</span><span class="line"><span class="number">110</span>         {
</span><span class="line highlight"><span class="number">111</span>             return $this-&gt;convert_result_object($model_call_result);
</span><span class="line"><span class="number">112</span>         }
</span><span class="line"><span class="number">113</span>         else if ( is_array($model_call_result) )
</span><span class="line"><span class="number">114</span>         {
</span><span class="line"><span class="number">115</span>             return $this-&gt;convert_result_traversable($model_call_result);
</span><span class="line"><span class="number">116</span>         }
</span></code></pre></code></pre>
							</li>
								<li>
				<p>
					<span class="file">
													<a href="#error53469fbb122c0source4" onclick="return koggle('error53469fbb122c0source4')">MODPATH/api/classes/API/Response.php [ 153 ]</a>
											</span>
					&raquo;
					API_Response->convert_result(<a href="#error53469fbb122c0args4" onclick="return koggle('error53469fbb122c0args4')">arguments</a>)
				</p>
								<div id="error53469fbb122c0args4" class="collapsed">
					<table cellspacing="0">
											<tr>
							<td><code>0</code></td>
							<td><pre><small>object</small> <span>Model_Lot_Category(34)</span> <code>{
    <small>protected</small> _has_one => <small>array</small><span>(0)</span> 
    <small>protected</small> _belongs_to => <small>array</small><span>(0)</span> 
    <small>protected</small> _has_many => <small>array</small><span>(1)</span> <span>(
        "parameters" => <small>array</small><span>(4)</span> <span>(
            "foreign_key" => <small>string</small><span>(11)</span> "category_id"
            "through" => <small>NULL</small>
            "far_key" => <small>string</small><span>(12)</span> "parameter_id"
            "model" => <small>string</small><span>(13)</span> "Lot_Parameter"
        )</span>
    )</span>
    <small>protected</small> _load_with => <small>array</small><span>(0)</span> 
    <small>protected</small> _validation => <small>NULL</small>
    <small>protected</small> _object => <small>array</small><span>(3)</span> <span>(
        "id" => <small>string</small><span>(1)</span> "1"
        "name" => <small>string</small><span>(16)</span> "Живопись"
        "order" => <small>string</small><span>(2)</span> "10"
    )</span>
    <small>protected</small> _changed => <small>array</small><span>(0)</span> 
    <small>protected</small> _original_values => <small>array</small><span>(3)</span> <span>(
        "id" => <small>string</small><span>(1)</span> "1"
        "name" => <small>string</small><span>(16)</span> "Живопись"
        "order" => <small>string</small><span>(2)</span> "10"
    )</span>
    <small>protected</small> _related => <small>array</small><span>(0)</span> 
    <small>protected</small> _valid => <small>bool</small> TRUE
    <small>protected</small> _loaded => <small>bool</small> TRUE
    <small>protected</small> _saved => <small>bool</small> FALSE
    <small>protected</small> _sorting => <small>NULL</small>
    <small>protected</small> _foreign_key_suffix => <small>string</small><span>(3)</span> "_id"
    <small>protected</small> _object_name => <small>string</small><span>(12)</span> "lot_category"
    <small>protected</small> _object_plural => <small>string</small><span>(14)</span> "lot_categories"
    <small>protected</small> _table_name => <small>string</small><span>(14)</span> "lot_categories"
    <small>protected</small> _table_columns => <small>array</small><span>(3)</span> <span>(
        "id" => <small>array</small><span>(13)</span> <span>(
            "type" => <small>string</small><span>(3)</span> "int"
            "min" => <small>string</small><span>(1)</span> "0"
            "max" => <small>string</small><span>(10)</span> "4294967295"
            "column_name" => <small>string</small><span>(2)</span> "id"
            "column_default" => <small>NULL</small>
            "data_type" => <small>string</small><span>(12)</span> "int unsigned"
            "is_nullable" => <small>bool</small> FALSE
            "ordinal_position" => <small>integer</small> 1
            "display" => <small>string</small><span>(2)</span> "11"
            "comment" => <small>string</small><span>(0)</span> ""
            "extra" => <small>string</small><span>(14)</span> "auto_increment"
            "key" => <small>string</small><span>(3)</span> "PRI"
            "privileges" => <small>string</small><span>(31)</span> "select,insert,update,references"
        )</span>
        "name" => <small>array</small><span>(12)</span> <span>(
            "type" => <small>string</small><span>(6)</span> "string"
            "column_name" => <small>string</small><span>(4)</span> "name"
            "column_default" => <small>NULL</small>
            "data_type" => <small>string</small><span>(7)</span> "varchar"
            "is_nullable" => <small>bool</small> FALSE
            "ordinal_position" => <small>integer</small> 2
            "character_maximum_length" => <small>string</small><span>(2)</span> "32"
            "collation_name" => <small>string</small><span>(15)</span> "utf8_unicode_ci"
            "comment" => <small>string</small><span>(0)</span> ""
            "extra" => <small>string</small><span>(0)</span> ""
            "key" => <small>string</small><span>(0)</span> ""
            "privileges" => <small>string</small><span>(31)</span> "select,insert,update,references"
        )</span>
        "order" => <small>array</small><span>(13)</span> <span>(
            "type" => <small>string</small><span>(3)</span> "int"
            "min" => <small>string</small><span>(1)</span> "0"
            "max" => <small>string</small><span>(10)</span> "4294967295"
            "column_name" => <small>string</small><span>(5)</span> "order"
            "column_default" => <small>NULL</small>
            "data_type" => <small>string</small><span>(12)</span> "int unsigned"
            "is_nullable" => <small>bool</small> FALSE
            "ordinal_position" => <small>integer</small> 3
            "display" => <small>string</small><span>(1)</span> "5"
            "comment" => <small>string</small><span>(0)</span> ""
            "extra" => <small>string</small><span>(0)</span> ""
            "key" => <small>string</small><span>(0)</span> ""
            "privileges" => <small>string</small><span>(31)</span> "select,insert,update,references"
        )</span>
    )</span>
    <small>protected</small> _updated_column => <small>NULL</small>
    <small>protected</small> _created_column => <small>NULL</small>
    <small>protected</small> _serialize_columns => <small>array</small><span>(0)</span> 
    <small>protected</small> _primary_key => <small>string</small><span>(2)</span> "id"
    <small>protected</small> _primary_key_value => <small>string</small><span>(1)</span> "1"
    <small>protected</small> _table_names_plural => <small>bool</small> TRUE
    <small>protected</small> _reload_on_wakeup => <small>bool</small> TRUE
    <small>protected</small> _db => <small>object</small> <span>Database_MySQL(6)</span> <code>{
        <small>protected</small> _connection_id => <small>string</small><span>(40)</span> "dd20b3b4b106505a9e7ee4afe594d0da1f425047"
        <small>protected</small> _identifier => <small>string</small><span>(1)</span> "`"
        <small>public</small> last_query => <small>string</small><span>(142)</span> "SELECT `lot_category`.`id` AS `id`, `lot_category`.`name` AS `name`, `lot_category`.`order` AS `order` FROM `lot_categories` AS &nbsp;&hellip;"
        <small>protected</small> _instance => <small>string</small><span>(7)</span> "default"
        <small>protected</small> _connection => <small>resource</small><span>(mysql link)</span>
        <small>protected</small> _config => <small>array</small><span>(6)</span> <span>(
            "type" => <small>string</small><span>(5)</span> "MySQL"
            "connection" => <small>array</small><span>(3)</span> <span>(
                "hostname" => <small>string</small><span>(9)</span> "localhost"
                "database" => <small>string</small><span>(12)</span> "art_for_sale"
                "persistent" => <small>bool</small> FALSE
            )</span>
            "table_prefix" => <small>string</small><span>(0)</span> ""
            "charset" => <small>string</small><span>(4)</span> "utf8"
            "caching" => <small>bool</small> FALSE
            "profiling" => <small>bool</small> TRUE
        )</span>
    }</code>
    <small>protected</small> _db_group => <small>NULL</small>
    <small>protected</small> _db_applied => <small>array</small><span>(0)</span> 
    <small>protected</small> _db_pending => <small>array</small><span>(0)</span> 
    <small>protected</small> _db_reset => <small>bool</small> TRUE
    <small>protected</small> _db_builder => <small>NULL</small>
    <small>protected</small> _with_applied => <small>array</small><span>(0)</span> 
    <small>protected</small> _cast_data => <small>array</small><span>(0)</span> 
    <small>protected</small> _errors_filename => <small>string</small><span>(12)</span> "lot_category"
}</code></pre></td>
						</tr>
										</table>
				</div>
													<pre id="error53469fbb122c0source4" class="source collapsed"><code><pre class="source"><code><span class="line"><span class="number">148</span>     {
</span><span class="line"><span class="number">149</span>         $data = array();
</span><span class="line"><span class="number">150</span> 
</span><span class="line"><span class="number">151</span>         foreach ( $traversable as $key =&gt; $value )
</span><span class="line"><span class="number">152</span>         {
</span><span class="line highlight"><span class="number">153</span>             $data[$key] = $this-&gt;convert_result($value);
</span><span class="line"><span class="number">154</span>         }
</span><span class="line"><span class="number">155</span> 
</span><span class="line"><span class="number">156</span>         return $data;
</span><span class="line"><span class="number">157</span>     }
</span><span class="line"><span class="number">158</span> 
</span></code></pre></code></pre>
							</li>
								<li>
				<p>
					<span class="file">
													<a href="#error53469fbb122c0source5" onclick="return koggle('error53469fbb122c0source5')">MODPATH/api/classes/API/Response.php [ 139 ]</a>
											</span>
					&raquo;
					API_Response->convert_result_traversable(<a href="#error53469fbb122c0args5" onclick="return koggle('error53469fbb122c0args5')">arguments</a>)
				</p>
								<div id="error53469fbb122c0args5" class="collapsed">
					<table cellspacing="0">
											<tr>
							<td><code>0</code></td>
							<td><pre><small>object</small> <span>Database_MySQL_Result(7)</span> <code>{
    <small>protected</small> _internal_row => <small>integer</small> 1
    <small>protected</small> _query => <small>string</small><span>(142)</span> "SELECT `lot_category`.`id` AS `id`, `lot_category`.`name` AS `name`, `lot_category`.`order` AS `order` FROM `lot_categories` AS &nbsp;&hellip;"
    <small>protected</small> _result => <small>resource</small><span>(mysql result)</span>
    <small>protected</small> _total_rows => <small>integer</small> 6
    <small>protected</small> _current_row => <small>integer</small> 0
    <small>protected</small> _as_object => <small>string</small><span>(18)</span> "Model_Lot_Category"
    <small>protected</small> _object_params => <small>NULL</small>
}</code></pre></td>
						</tr>
										</table>
				</div>
													<pre id="error53469fbb122c0source5" class="source collapsed"><code><pre class="source"><code><span class="line"><span class="number">134</span> 
</span><span class="line"><span class="number">135</span>             return $object-&gt;get_api_response_data();
</span><span class="line"><span class="number">136</span>         }
</span><span class="line"><span class="number">137</span>         else if ( $object instanceof Traversable )
</span><span class="line"><span class="number">138</span>         {
</span><span class="line highlight"><span class="number">139</span>             return $this-&gt;convert_result_traversable($object);
</span><span class="line"><span class="number">140</span>         }
</span><span class="line"><span class="number">141</span>         else
</span><span class="line"><span class="number">142</span>             throw new API_Model_Exception(
</span><span class="line"><span class="number">143</span>                 'API model method may return objects implementing Traversable or API_Model_Response_Item only'
</span><span class="line"><span class="number">144</span>             );
</span></code></pre></code></pre>
							</li>
								<li>
				<p>
					<span class="file">
													<a href="#error53469fbb122c0source6" onclick="return koggle('error53469fbb122c0source6')">MODPATH/api/classes/API/Response.php [ 111 ]</a>
											</span>
					&raquo;
					API_Response->convert_result_object(<a href="#error53469fbb122c0args6" onclick="return koggle('error53469fbb122c0args6')">arguments</a>)
				</p>
								<div id="error53469fbb122c0args6" class="collapsed">
					<table cellspacing="0">
											<tr>
							<td><code>0</code></td>
							<td><pre><small>object</small> <span>Database_MySQL_Result(7)</span> <code>{