<style type="text/css">
#kohana_error { background: #ddd; font-size: 1em; font-family:sans-serif; text-align: left; color: #111; }
#kohana_error h1,
#kohana_error h2 { margin: 0; padding: 1em; font-size: 1em; font-weight: normal; background: #911; color: #fff; }
	#kohana_error h1 a,
	#kohana_error h2 a { color: #fff; }
#kohana_error h2 { background: #222; }
#kohana_error h3 { margin: 0; padding: 0.4em 0 0; font-size: 1em; font-weight: normal; }
#kohana_error p { margin: 0; padding: 0.2em 0; }
#kohana_error a { color: #1b323b; }
#kohana_error pre { overflow: auto; white-space: pre-wrap; }
#kohana_error table { width: 100%; display: block; margin: 0 0 0.4em; padding: 0; border-collapse: collapse; background: #fff; }
	#kohana_error table td { border: solid 1px #ddd; text-align: left; vertical-align: top; padding: 0.4em; }
#kohana_error div.content { padding: 0.4em 1em 1em; overflow: hidden; }
#kohana_error pre.source { margin: 0 0 1em; padding: 0.4em; background: #fff; border: dotted 1px #b7c680; line-height: 1.2em; }
	#kohana_error pre.source span.line { display: block; }
	#kohana_error pre.source span.highlight { background: #f0eb96; }
		#kohana_error pre.source span.line span.number { color: #666; }
#kohana_error ol.trace { display: block; margin: 0 0 0 2em; padding: 0; list-style: decimal; }
	#kohana_error ol.trace li { margin: 0; padding: 0; }
.js .collapsed { display: none; }
</style>
<script type="text/javascript">
document.documentElement.className = document.documentElement.className + ' js';
function koggle(elem)
{
	elem = document.getElementById(elem);

	if (elem.style && elem.style['display'])
		// Only works with the "style" attr
		var disp = elem.style['display'];
	else if (elem.currentStyle)
		// For MSIE, naturally
		var disp = elem.currentStyle['display'];
	else if (window.getComputedStyle)
		// For most other browsers
		var disp = document.defaultView.getComputedStyle(elem, null).getPropertyValue('display');

	// Toggle the state of the "display" style
	elem.style.display = disp == 'block' ? 'none' : 'block';
	return false;
}
</script>
<div id="kohana_error">
	<h1><span class="type">IFace_Exception_MissingURL [ 404 ]:</span> <span class="message">Unknown url part company</span></h1>
	<div id="error5347b6b2633d7" class="content">
		<p><span class="file">MODPATH/iface/classes/IFace/Provider.php [ 36 ]</span></p>
		<pre class="source"><code><span class="line"><span class="number">31</span>         {
</span><span class="line"><span class="number">32</span>             $iface_instance = $this-&gt;by_uri($uri_part, $parent_iface);
</span><span class="line"><span class="number">33</span> 
</span><span class="line"><span class="number">34</span>             // Throw IFace_Exception_MissingURL so we can forward user to parent iface or custom 404 page
</span><span class="line"><span class="number">35</span>             if ( ! $iface_instance )
</span><span class="line highlight"><span class="number">36</span>                 throw new IFace_Exception_MissingURL($uri_part, $parent_iface);
</span><span class="line"><span class="number">37</span> 
</span><span class="line"><span class="number">38</span>             $parent_iface = $iface_instance;
</span><span class="line"><span class="number">39</span>         }
</span><span class="line"><span class="number">40</span> 
</span><span class="line"><span class="number">41</span>         // Return last IFace
</span></code></pre>		<ol class="trace">
					<li>
				<p>
					<span class="file">
													<a href="#error5347b6b2633d7source0" onclick="return koggle('error5347b6b2633d7source0')">MODPATH/iface/classes/Core/Controller/IFace.php [ 10 ]</a>
											</span>
					&raquo;
					IFace_Provider->parse_uri(<a href="#error5347b6b2633d7args0" onclick="return koggle('error5347b6b2633d7args0')">arguments</a>)
				</p>
								<div id="error5347b6b2633d7args0" class="collapsed">
					<table cellspacing="0">
											<tr>
							<td><code>0</code></td>
							<td><pre><small>string</small><span>(7)</span> "company"</pre></td>
						</tr>
										</table>
				</div>
													<pre id="error5347b6b2633d7source0" class="source collapsed"><code><pre class="source"><code><span class="line"><span class="number"> 5</span>     public function action_render()
</span><span class="line"><span class="number"> 6</span>     {
</span><span class="line"><span class="number"> 7</span>         $uri = $this-&gt;get_request_uri();
</span><span class="line"><span class="number"> 8</span> 
</span><span class="line"><span class="number"> 9</span>         // Getting current IFace
</span><span class="line highlight"><span class="number">10</span>         $iface = IFace_Provider::instance()-&gt;parse_uri($uri);
</span><span class="line"><span class="number">11</span> 
</span><span class="line"><span class="number">12</span>         // If this is default IFace and client requested non-slash uri, redirect client to /
</span><span class="line"><span class="number">13</span>         if ( $iface-&gt;is_default() AND $this-&gt;get_request_uri() != '' )
</span><span class="line"><span class="number">14</span>         {
</span><span class="line"><span class="number">15</span>             HTTP::redirect('/');
</span></code></pre></code></pre>
							</li>
								<li>
				<p>
					<span class="file">
													<a href="#error5347b6b2633d7source1" onclick="return koggle('error5347b6b2633d7source1')">APPPATH/classes/Controller/Proxy.php [ 67 ]</a>
											</span>
					&raquo;
					Core_Controller_IFace->action_render(<a href="#error5347b6b2633d7args1" onclick="return koggle('error5347b6b2633d7args1')">arguments</a>)
				</p>
								<div id="error5347b6b2633d7args1" class="collapsed">
					<table cellspacing="0">
											<tr>
							<td><code>0</code></td>
							<td><pre><small>object</small> <span>Controller_IFace(5)</span> <code>{
    <small>protected</small> _proxy_object => <small>object</small> <span>Controller_IFace(5)</span> {
        *RECURSION*
    }
    <small>protected</small> _proxy_method => <small>string</small><span>(13)</span> "action_render"
    <small>protected</small> _proxy_result => <small>NULL</small>
    <small>public</small> request => <small>object</small> <span>Request(19)</span> <code>{
        <small>protected</small> _requested_with => <small>NULL</small>
        <small>protected</small> _method => <small>string</small><span>(3)</span> "GET"
        <small>protected</small> _protocol => <small>string</small><span>(8)</span> "HTTP/1.0"
        <small>protected</small> _secure => <small>bool</small> FALSE
        <small>protected</small> _referrer => <small>NULL</small>
        <small>protected</small> _route => <small>object</small> <span>Route(5)</span> <code>{
            <small>protected</small> _filters => <small>array</small><span>(0)</span> 
            <small>protected</small> _uri => <small>string</small><span>(7)</span> "(&lt;uri&gt;)"
            <small>protected</small> _regex => <small>array</small><span>(1)</span> <span>(
                "uri" => <small>string</small><span>(2)</span> ".+"
            )</span>
            <small>protected</small> _defaults => <small>array</small><span>(2)</span> <span>(
                "controller" => <small>string</small><span>(5)</span> "IFace"
                "action" => <small>string</small><span>(6)</span> "render"
            )</span>
            <small>protected</small> _route_regex => <small>string</small><span>(22)</span> "#^(?:(?P&lt;uri&gt;.+))?$#uD"
        }</code>
        <small>protected</small> _routes => <small>array</small><span>(0)</span> 
        <small>protected</small> _header => <small>object</small> <span>HTTP_Header(9)</span> <code>{
            <small>public</small> host => <small>string</small><span>(16)</span> "test.afs.gallery"
            <small>public</small> x-real-ip => <small>string</small><span>(15)</span> "109.205.249.176"
            <small>public</small> x-forwarded-for => <small>string</small><span>(15)</span> "109.205.249.176"
            <small>public</small> connection => <small>string</small><span>(5)</span> "close"
            <small>public</small> accept-encoding => <small>string</small><span>(13)</span> "gzip, deflate"
            <small>public</small> accept => <small>string</small><span>(63)</span> "text/html,application/xhtml+xml,application/xml;q=0.9,*/*;q=0.8"
            <small>public</small> cookie => <small>string</small><span>(34)</span> "session=bv6qnfieqfq08nk7100udj56c1"
            <small>public</small> accept-language => <small>string</small><span>(2)</span> "ru"
            <small>public</small> user-agent => <small>string</small><span>(135)</span> "Mozilla/5.0 (iPhone; CPU iPhone OS 7_1 like Mac OS X) AppleWebKit/537.51.2 (KHTML, like Gecko) Version/7.0 Mobile/11D167 Safari/&nbsp;&hellip;"
        }</code>
        <small>protected</small> _body => <small>NULL</small>
        <small>protected</small> _directory => <small>string</small><span>(0)</span> ""
        <small>protected</small> _controller => <small>string</small><span>(5)</span> "IFace"
        <small>protected</small> _action => <small>string</small><span>(6)</span> "render"
        <small>protected</small> _uri => <small>string</small><span>(7)</span> "company"
        <small>protected</small> _external => <small>bool</small> FALSE
        <small>protected</small> _params => <small>array</small><span>(1)</span> <span>(
            "uri" => <small>string</small><span>(7)</span> "company"
        )</span>
        <small>protected</small> _get => <small>array</small><span>(0)</span> 
        <small>protected</small> _post => <small>array</small><span>(0)</span> 
        <small>protected</small> _cookies => <small>array</small><span>(1)</span> <span>(
            "session" => <small>NULL</small>
        )</span>
        <small>protected</small> _client => <small>object</small> <span>Request_Client_Internal(9)</span> <code>{
            <small>protected</small> _previous_environment => <small>NULL</small>
            <small>protected</small> _cache => <small>NULL</small>
            <small>protected</small> _follow => <small>bool</small> FALSE
            <small>protected</small> _follow_headers => <small>array</small><span>(1)</span> <span>(
                0 => <small>string</small><span>(13)</span> "Authorization"
            )</span>
            <small>protected</small> _strict_redirect => <small>bool</small> TRUE
            <small>protected</small> _header_callbacks => <small>array</small><span>(1)</span> <span>(
                "Location" => <small>string</small><span>(34)</span> "Request_Client::on_header_location"
            )</span>
            <small>protected</small> _max_callback_depth => <small>integer</small> 5
            <small>protected</small> _callback_depth => <small>integer</small> 1
            <small>protected</small> _callback_params => <small>array</small><span>(0)</span> 
        }</code>
    }</code>
    <small>public</small> response => <small>object</small> <span>Response(8)</span> <code>{
        <small>protected</small> _content_type => <small>integer</small> 1
        <small>protected</small> _wrapper => <small>NULL</small>
        <small>protected</small> _request => <small>object</small> <span>Request(19)</span> <code>{
            <small>protected</small> _requested_with => <small>NULL</small>
            <small>protected</small> _method => <small>string</small><span>(3)</span> "GET"
            <small>protected</small> _protocol => <small>string</small><span>(8)</span> "HTTP/1.0"
            <small>protected</small> _secure => <small>bool</small> FALSE
            <small>protected</small> _referrer => <small>NULL</small>
            <small>protected</small> _route => <small>object</small> <span>Route(5)</span> <code>{
                <small>protected</small> _filters => <small>array</small><span>(0)</span> 
                <small>protected</small> _uri => <small>string</small><span>(7)</span> "(&lt;uri&gt;)"
                <small>protected</small> _regex => <small>array</small><span>(1)</span> <span>(
                    "uri" => <small>string</small><span>(2)</span> ".+"
                )</span>
                <small>protected</small> _defaults => <small>array</small><span>(2)</span> <span>(
                    "controller" => <small>string</small><span>(5)</span> "IFace"
                    "action" => <small>string</small><span>(6)</span> "render"
                )</span>
                <small>protected</small> _route_regex => <small>string</small><span>(22)</span> "#^(?:(?P&lt;uri&gt;.+))?$#uD"
            }</code>
            <small>protected</small> _routes => <small>array</small><span>(0)</span> 
            <small>protected</small> _header => <small>object</small> <span>HTTP_Header(9)</span> <code>{
                <small>public</small> host => <small>string</small><span>(16)</span> "test.afs.gallery"
                <small>public</small> x-real-ip => <small>string</small><span>(15)</span> "109.205.249.176"
                <small>public</small> x-forwarded-for => <small>string</small><span>(15)</span> "109.205.249.176"
                <small>public</small> connection => <small>string</small><span>(5)</span> "close"
                <small>public</small> accept-encoding => <small>string</small><span>(13)</span> "gzip, deflate"
                <small>public</small> accept => <small>string</small><span>(63)</span> "text/html,application/xhtml+xml,application/xml;q=0.9,*/*;q=0.8"
                <small>public</small> cookie => <small>string</small><span>(34)</span> "session=bv6qnfieqfq08nk7100udj56c1"
                <small>public</small> accept-language => <small>string</small><span>(2)</span> "ru"
                <small>public</small> user-agent => <small>string</small><span>(135)</span> "Mozilla/5.0 (iPhone; CPU iPhone OS 7_1 like Mac OS X) AppleWebKit/537.51.2 (KHTML, like Gecko) Version/7.0 Mobile/11D167 Safari/&nbsp;&hellip;"
            }</code>
            <small>protected</small> _body => <small>NULL</small>
            <small>protected</small> _directory => <small>string</small><span>(0)</span> ""
            <small>protected</small> _controller => <small>string</small><span>(5)</span> "IFace"
            <small>protected</small> _action => <small>string</small><span>(6)</span> "render"
            <small>protected</small> _uri => <small>string</small><span>(7)</span> "company"
            <small>protected</small> _external => <small>bool</small> FALSE
            <small>protected</small> _params => <small>array</small><span>(1)</span> <span>(
                "uri" => <small>string</small><span>(7)</span> "company"
            )</span>
            <small>protected</small> _get => <small>array</small><span>(0)</span> 
            <small>protected</small> _post => <small>array</small><span>(0)</span> 
            <small>protected</small> _cookies => <small>array</small><span>(1)</span> <span>(
                "session" => <small>NULL</small>
            )</span>
            <small>protected</small> _client => <small>object</small> <span>Request_Client_Internal(9)</span> <code>{
                <small>protected</small> _previous_environment => <small>NULL</small>
                <small>protected</small> _cache => <small>NULL</small>
                <small>protected</small> _follow => <small>bool</small> FALSE
                <small>protected</small> _follow_headers => <small>array</small><span>(1)</span> <span>(
                    0 => <small>string</small><span>(13)</span> "Authorization"
                )</span>
                <small>protected</small> _strict_redirect => <small>bool</small> TRUE
                <small>protected</small> _header_callbacks => <small>array</small><span>(1)</span> <span>(
                    "Location" => <small>string</small><span>(34)</span> "Request_Client::on_header_location"
                )</span>
                <small>protected</small> _max_callback_depth => <small>integer</small> 5
                <small>protected</small> _callback_depth => <small>integer</small> 1
                <small>protected</small> _callback_params => <small>array</small><span>(0)</span> 
            }</code>
        }</code>
        <small>protected</small> _status => <small>integer</small> 200
        <small>protected</small> _header => <small>object</small> <span>HTTP_Header(0)</span> <code>{
        }</code>
        <small>protected</small> _body => <small>string</small><span>(0)</span> ""
        <small>protected</small> _cookies => <small>array</small><span>(0)</span> 
        <small>protected</small> _protocol => <small>NULL</small>
    }</code>
}</code></pre></td>
						</tr>
										</table>
				</div>
													<pre id="error5347b6b2633d7source1" class="source collapsed"><code><pre class="source"><code><span class="line"><span class="number">62</span>     }
</span><span class="line"><span class="number">63</span> 
</span><span class="line"><span class="number">64</span>     protected function _execute_proxy()
</span><span class="line"><span class="number">65</span>     {
</span><span class="line"><span class="number">66</span>         // Execute the action itself
</span><span class="line highlight"><span class="number">67</span>         return $this-&gt;_proxy_object-&gt;{$this-&gt;_proxy_method}($this);
</span><span class="line"><span class="number">68</span>     }
</span><span class="line"><span class="number">69</span> 
</span><span class="line"><span class="number">70</span>     protected function get_proxy_object()
</span><span class="line"><span class="number">71</span>     {
</span><span class="line"><span class="number">72</span>         return $this;
</span></code></pre></code></pre>
							</li>
								<li>
				<p>
					<span class="file">
													<a href="#error5347b6b2633d7source2" onclick="return koggle('error5347b6b2633d7source2')">APPPATH/classes/Controller/Proxy.php [ 58 ]</a>
											</span>
					&raquo;
					Controller_Proxy->_execute_proxy()
				</p>
													<pre id="error5347b6b2633d7source2" class="source collapsed"><code><pre class="source"><code><span class="line"><span class="number">53</span>     {
</span><span class="line"><span class="number">54</span>         // Controller "before" method
</span><span class="line"><span class="number">55</span>         $this-&gt;before();
</span><span class="line"><span class="number">56</span> 
</span><span class="line"><span class="number">57</span>         // Proxy request
</span><span class="line highlight"><span class="number">58</span>         $this-&gt;_proxy_result = $this-&gt;_execute_proxy();
</span><span class="line"><span class="number">59</span> 
</span><span class="line"><span class="number">60</span>         // Controller "after" method
</span><span class="line"><span class="number">61</span>         $this-&gt;after();
</span><span class="line"><span class="number">62</span>     }
</span><span class="line"><span class="number">63</span> 
</span></code></pre></code></pre>
							</li>
								<li>
				<p>
					<span class="file">
													<a href="#error5347b6b2633d7source3" onclick="return koggle('error5347b6b2633d7source3')">APPPATH/classes/Controller/Proxy.php [ 36 ]</a>
											</span>
					&raquo;
					Controller_Proxy->_execute()
				</p>
													<pre id="error5347b6b2633d7source3" class="source collapsed"><code><pre class="source"><code><span class="line"><span class="number">31</span>         // Adding response to stack
</span><span class="line"><span class="number">32</span>         Response::push($this-&gt;response, $this-&gt;request);
</span><span class="line"><span class="number">33</span> 
</span><span class="line"><span class="number">34</span>         try
</span><span class="line"><span class="number">35</span>         {
</span><span class="line highlight"><span class="number">36</span>             $this-&gt;_execute();
</span><span class="line"><span class="number">37</span>         }
</span><span class="line"><span class="number">38</span>         catch ( Kohana_Exception $e )
</span><span class="line"><span class="number">39</span>         {
</span><span class="line"><span class="number">40</span>             Response::handle_exception($e);
</span><span class="line"><span class="number">41</span>         }
</span></code></pre></code></pre>
							</li>
								<li>
				<p>
					<span class="file">
													{PHP internal call}
											</span>
					&raquo;
					Controller_Proxy->execute()
				</p>
											</li>
								<li>
				<p>
					<span class="file">
													<a href="#error5347b6b2633d7source5" onclick="return koggle('error5347b6b2633d7source5')">SYSPATH/classes/Kohana/Request/Client/Internal.php [ 97 ]</a>
											</span>
					&raquo;
					ReflectionMethod->invoke(<a href="#error5347b6b2633d7args5" onclick="return koggle('error5347b6b2633d7args5')">arguments</a>)
				</p>
								<div id="error5347b6b2633d7args5" class="collapsed">
					<table cellspacing="0">
											<tr>
							<td><code>0</code></td>
							<td><pre><small>object</small> <span>Controller_IFace(5)</span> <code>{
    <small>protected</small> _proxy_object => <small>object</small> <span>Controller_IFace(5)</span> {
        *RECURSION*
    }
    <small>protected</small> _proxy_method => <small>string</small><span>(13)</span> "action_render"
    <small>protected</small> _proxy_result => <small>NULL</small>
    <small>public</small> request => <small>object</small> <span>Request(19)</span> <code>{
        <small>protected</small> _requested_with => <small>NULL</small>
        <small>protected</small> _method => <small>string</small><span>(3)</span> "GET"
        <small>protected</small> _protocol => <small>string</small><span>(8)</span> "HTTP/1.0"
        <small>protected</small> _secure => <small>bool</small> FALSE
        <small>protected</small> _referrer => <small>NULL</small>
        <small>protected</small> _route => <small>object</small> <span>Route(5)</span> <code>{
            <small>protected</small> _filters => <small>array</small><span>(0)</span> 
            <small>protected</small> _uri => <small>string</small><span>(7)</span> "(&lt;uri&gt;)"
            <small>protected</small> _regex => <small>array</small><span>(1)</span> <span>(
                "uri" => <small>string</small><span>(2)</span> ".+"
            )</span>
            <small>protected</small> _defaults => <small>array</small><span>(2)</span> <span>(
                "controller" => <small>string</small><span>(5)</span> "IFace"
                "action" => <small>string</small><span>(6)</span> "render"
            )</span>
            <small>protected</small> _route_regex => <small>string</small><span>(22)</span> "#^(?:(?P&lt;uri&gt;.+))?$#uD"
        }</code>
        <small>protected</small> _routes => <small>array</small><span>(0)</span> 
        <small>protected</small> _header => <small>object</small> <span>HTTP_Header(9)</span> <code>{
            <small>public</small> host => <small>string</small><span>(16)</span> "test.afs.gallery"
            <small>public</small> x-real-ip => <small>string</small><span>(15)</span> "109.205.249.176"
            <small>public</small> x-forwarded-for => <small>string</small><span>(15)</span> "109.205.249.176"
            <small>public</small> connection => <small>string</small><span>(5)</span> "close"
            <small>public</small> accept-encoding => <small>string</small><span>(13)</span> "gzip, deflate"
            <small>public</small> accept => <small>string</small><span>(63)</span> "text/html,application/xhtml+xml,application/xml;q=0.9,*/*;q=0.8"
            <small>public</small> cookie => <small>string</small><span>(34)</span> "session=bv6qnfieqfq08nk7100udj56c1"
            <small>public</small> accept-language => <small>string</small><span>(2)</span> "ru"
            <small>public</small> user-agent => <small>string</small><span>(135)</span> "Mozilla/5.0 (iPhone; CPU iPhone OS 7_1 like Mac OS X) AppleWebKit/537.51.2 (KHTML, like Gecko) Version/7.0 Mobile/11D167 Safari/&nbsp;&hellip;"
        }</code>
        <small>protected</small> _body => <small>NULL</small>
        <small>protected</small> _directory => <small>string</small><span>(0)</span> ""
        <small>protected</small> _controller => <small>string</small><span>(5)</span> "IFace"
        <small>protected</small> _action => <small>string</small><span>(6)</span> "render"
        <small>protected</small> _uri => <small>string</small><span>(7)</span> "company"
        <small>protected</small> _external => <small>bool</small> FALSE
        <small>protected</small> _params => <small>array</small><span>(1)</span> <span>(
            "uri" => <small>string</small><span>(7)</span> "company"
        )</span>
        <small>protected</small> _get => <small>array</small><span>(0)</span> 
        <small>protected</small> _post => <small>array</small><span>(0)</span> 
        <small>protected</small> _cookies => <small>array</small><span>(1)</span> <span>(
            "session" => <small>NULL</small>
        )</span>
        <small>protected</small> _client => <small>object</small> <span>Request_Client_Internal(9)</span> <code>{
            <small>protected</small> _previous_environment => <small>NULL</small>
            <small>protected</small> _cache => <small>NULL</small>
            <small>protected</small> _follow => <small>bool</small> FALSE
            <small>protected</small> _follow_headers => <small>array</small><span>(1)</span> <span>(
                0 => <small>string</small><span>(13)</span> "Authorization"
            )</span>
            <small>protected</small> _strict_redirect => <small>bool</small> TRUE
            <small>protected</small> _header_callbacks => <small>array</small><span>(1)</span> <span>(
                "Location" => <small>string</small><span>(34)</span> "Request_Client::on_header_location"
            )</span>
            <small>protected</small> _max_callback_depth => <small>integer</small> 5
            <small>protected</small> _callback_depth => <small>integer</small> 1
            <small>protected</small> _callback_params => <small>array</small><span>(0)</span> 
        }</code>
    }</code>
    <small>public</small> response => <small>object</small> <span>Response(8)</span> <code>{
        <small>protected</small> _content_type => <small>integer</small> 1
        <small>protected</small> _wrapper => <small>NULL</small>
        <small>protected</small> _request => <small>object</small> <span>Request(19)</span> <code>{
            <small>protected</small> _requested_with => <small>NULL</small>
            <small>protected</small> _method => <small>string</small><span>(3)</span> "GET"
            <small>protected</small> _protocol => <small>string</small><span>(8)</span> "HTTP/1.0"
            <small>protected</small> _secure => <small>bool</small> FALSE
            <small>protected</small> _referrer => <small>NULL</small>
            <small>protected</small> _route => <small>object</small> <span>Route(5)</span> <code>{
                <small>protected</small> _filters => <small>array</small><span>(0)</span> 
                <small>protected</small> _uri => <small>string</small><span>(7)</span> "(&lt;uri&gt;)"
                <small>protected</small> _regex => <small>array</small><span>(1)</span> <span>(
                    "uri" => <small>string</small><span>(2)</span> ".+"
                )</span>
                <small>protected</small> _defaults => <small>array</small><span>(2)</span> <span>(
                    "controller" => <small>string</small><span>(5)</span> "IFace"
                    "action" => <small>string</small><span>(6)</span> "render"
                )</span>
                <small>protected</small> _route_regex => <small>string</small><span>(22)</span> "#^(?:(?P&lt;uri&gt;.+))?$#uD"
            }</code>
            <small>protected</small> _routes => <small>array</small><span>(0)</span> 
            <small>protected</small> _header => <small>object</small> <span>HTTP_Header(9)</span> <code>{
                <small>public</small> host => <small>string</small><span>(16)</span> "test.afs.gallery"
                <small>public</small> x-real-ip => <small>string</small><span>(15)</span> "109.205.249.176"
                <small>public</small> x-forwarded-for => <small>string</small><span>(15)</span> "109.205.249.176"
                <small>public</small> connection => <small>string</small><span>(5)</span> "close"
                <small>public</small> accept-encoding => <small>string</small><span>(13)</span> "gzip, deflate"
                <small>public</small> accept => <small>string</small><span>(63)</span> "text/html,application/xhtml+xml,application/xml;q=0.9,*/*;q=0.8"
                <small>public</small> cookie => <small>string</small><span>(34)</span> "session=bv6qnfieqfq08nk7100udj56c1"
                <small>public</small> accept-language => <small>string</small><span>(2)</span> "ru"
                <small>public</small> user-agent => <small>string</small><span>(135)</span> "Mozilla/5.0 (iPhone; CPU iPhone OS 7_1 like Mac OS X) AppleWebKit/537.51.2 (KHTML, like Gecko) Version/7.0 Mobile/11D167 Safari/&nbsp;&hellip;"
            }</code>
            <small>protected</small> _body => <small>NULL</small>
            <small>protected</small> _directory => <small>string</small><span>(0)</span> ""
            <small>protected</small> _controller => <small>string</small><span>(5)</span> "IFace"
            <small>protected</small> _action => <small>string</small><span>(6)</span> "render"
            <small>protected</small> _uri => <small>string</small><span>(7)</span> "company"
            <small>protected</small> _external => <small>bool</small> FALSE
            <small>protected</small> _params => <small>array</small><span>(1)</span> <span>(
                "uri" => <small>string</small><span>(7)</span> "company"
            )</span>