<style type="text/css">
#kohana_error { background: #ddd; font-size: 1em; font-family:sans-serif; text-align: left; color: #111; }
#kohana_error h1,
#kohana_error h2 { margin: 0; padding: 1em; font-size: 1em; font-weight: normal; background: #911; color: #fff; }
	#kohana_error h1 a,
	#kohana_error h2 a { color: #fff; }
#kohana_error h2 { background: #222; }
#kohana_error h3 { margin: 0; padding: 0.4em 0 0; font-size: 1em; font-weight: normal; }
#kohana_error p { margin: 0; padding: 0.2em 0; }
#kohana_error a { color: #1b323b; }
#kohana_error pre { overflow: auto; white-space: pre-wrap; }
#kohana_error table { width: 100%; display: block; margin: 0 0 0.4em; padding: 0; border-collapse: collapse; background: #fff; }
	#kohana_error table td { border: solid 1px #ddd; text-align: left; vertical-align: top; padding: 0.4em; }
#kohana_error div.content { padding: 0.4em 1em 1em; overflow: hidden; }
#kohana_error pre.source { margin: 0 0 1em; padding: 0.4em; background: #fff; border: dotted 1px #b7c680; line-height: 1.2em; }
	#kohana_error pre.source span.line { display: block; }
	#kohana_error pre.source span.highlight { background: #f0eb96; }
		#kohana_error pre.source span.line span.number { color: #666; }
#kohana_error ol.trace { display: block; margin: 0 0 0 2em; padding: 0; list-style: decimal; }
	#kohana_error ol.trace li { margin: 0; padding: 0; }
.js .collapsed { display: none; }
</style>
<script type="text/javascript">
document.documentElement.className = document.documentElement.className + ' js';
function koggle(elem)
{
	elem = document.getElementById(elem);

	if (elem.style && elem.style['display'])
		// Only works with the "style" attr
		var disp = elem.style['display'];
	else if (elem.currentStyle)
		// For MSIE, naturally
		var disp = elem.currentStyle['display'];
	else if (window.getComputedStyle)
		// For most other browsers
		var disp = document.defaultView.getComputedStyle(elem, null).getPropertyValue('display');

	// Toggle the state of the "display" style
	elem.style.display = disp == 'block' ? 'none' : 'block';
	return false;
}
</script>
<div id="kohana_error">
	<h1><span class="type">Kohana_Exception [ 0 ]:</span> <span class="message">The category_id property does not exist in the Model_Lot_Subcategory class</span></h1>
	<div id="error534c221b458af" class="content">
		<p><span class="file">MODPATH/orm/classes/Kohana/ORM.php [ 684 ]</span></p>
		<pre class="source"><code><span class="line"><span class="number">679</span> 
</span><span class="line"><span class="number">680</span> 			return $model-&gt;where($col, '=', $val);
</span><span class="line"><span class="number">681</span> 		}
</span><span class="line"><span class="number">682</span> 		else
</span><span class="line"><span class="number">683</span> 		{
</span><span class="line highlight"><span class="number">684</span> 			throw new Kohana_Exception('The :property property does not exist in the :class class',
</span><span class="line"><span class="number">685</span> 				array(':property' =&gt; $column, ':class' =&gt; get_class($this)));
</span><span class="line"><span class="number">686</span> 		}
</span><span class="line"><span class="number">687</span> 	}
</span><span class="line"><span class="number">688</span> 
</span><span class="line"><span class="number">689</span> 	/**
</span></code></pre>		<ol class="trace">
					<li>
				<p>
					<span class="file">
													<a href="#error534c221b458afsource0" onclick="return koggle('error534c221b458afsource0')">/spotman/www/projects/dev/betakiller/sites/art-for-sale/classes/Model/Lot/Subcategory.php [ 86 ]</a>
											</span>
					&raquo;
					Kohana_ORM->get(<a href="#error534c221b458afargs0" onclick="return koggle('error534c221b458afargs0')">arguments</a>)
				</p>
								<div id="error534c221b458afargs0" class="collapsed">
					<table cellspacing="0">
											<tr>
							<td><code>0</code></td>
							<td><pre><small>string</small><span>(11)</span> "category_id"</pre></td>
						</tr>
										</table>
				</div>
													<pre id="error534c221b458afsource0" class="source collapsed"><code><pre class="source"><code><span class="line"><span class="number">81</span>      *
</span><span class="line"><span class="number">82</span>      * @return string
</span><span class="line"><span class="number">83</span>      */
</span><span class="line"><span class="number">84</span>     public function get_category_id()
</span><span class="line"><span class="number">85</span>     {
</span><span class="line highlight"><span class="number">86</span>         return $this-&gt;get("category_id");
</span><span class="line"><span class="number">87</span>     }
</span><span class="line"><span class="number">88</span> 
</span><span class="line"><span class="number">89</span>     /**
</span><span class="line"><span class="number">90</span>      * Устанавливает ID категории
</span><span class="line"><span class="number">91</span>      *
</span></code></pre></code></pre>
							</li>
								<li>
				<p>
					<span class="file">
													<a href="#error534c221b458afsource1" onclick="return koggle('error534c221b458afsource1')">/spotman/www/projects/dev/betakiller/sites/art-for-sale/classes/Model/Lot/Subcategory.php [ 114 ]</a>
											</span>
					&raquo;
					Model_Lot_Subcategory->get_category_id()
				</p>
													<pre id="error534c221b458afsource1" class="source collapsed"><code><pre class="source"><code><span class="line"><span class="number">109</span> 
</span><span class="line"><span class="number">110</span>     public function get_api_response_data()
</span><span class="line"><span class="number">111</span>     {
</span><span class="line"><span class="number">112</span>         return array(
</span><span class="line"><span class="number">113</span>             'id'            =&gt; $this-&gt;get_id(),
</span><span class="line highlight"><span class="number">114</span>             'categoryId'    =&gt; $this-&gt;get_category_id(),
</span><span class="line"><span class="number">115</span>             'label'         =&gt; $this-&gt;get_label(),
</span><span class="line"><span class="number">116</span>             'url'           =&gt; $this-&gt;get_full_url(),
</span><span class="line"><span class="number">117</span>         );
</span><span class="line"><span class="number">118</span>     }
</span><span class="line"><span class="number">119</span> 
</span></code></pre></code></pre>
							</li>
								<li>
				<p>
					<span class="file">
													<a href="#error534c221b458afsource2" onclick="return koggle('error534c221b458afsource2')">/spotman/www/projects/dev/betakiller/sites/art-for-sale/classes/Model/Lot.php [ 447 ]</a>
											</span>
					&raquo;
					Model_Lot_Subcategory->get_api_response_data()
				</p>
													<pre id="error534c221b458afsource2" class="source collapsed"><code><pre class="source"><code><span class="line"><span class="number">442</span>             'author'        =&gt; $this-&gt;get_author_model()-&gt;get_api_response_data(),
</span><span class="line"><span class="number">443</span>             'country'       =&gt; $this-&gt;get_country_relation()-&gt;get_api_response_data(),
</span><span class="line"><span class="number">444</span>             'year'          =&gt; $this-&gt;get_year(),
</span><span class="line"><span class="number">445</span> 
</span><span class="line"><span class="number">446</span>             'category'      =&gt; $this-&gt;get_subcategory_model()-&gt;get_category_model()-&gt;get_api_response_data(),
</span><span class="line highlight"><span class="number">447</span>             'subcategory'   =&gt; $this-&gt;get_subcategory_model()-&gt;get_api_response_data(),
</span><span class="line"><span class="number">448</span> 
</span><span class="line"><span class="number">449</span>             // Размеры лота
</span><span class="line"><span class="number">450</span>             'width'         =&gt; $this-&gt;get_width(),
</span><span class="line"><span class="number">451</span>             'height'        =&gt; $this-&gt;get_height(),
</span><span class="line"><span class="number">452</span>             'depth'         =&gt; $this-&gt;get_depth(),
</span></code></pre></code></pre>
							</li>
								<li>
				<p>
					<span class="file">
													<a href="#error534c221b458afsource3" onclick="return koggle('error534c221b458afsource3')">MODPATH/api/classes/API/Response.php [ 135 ]</a>
											</span>
					&raquo;
					Model_Lot->get_api_response_data()
				</p>
													<pre id="error534c221b458afsource3" class="source collapsed"><code><pre class="source"><code><span class="line"><span class="number">130</span>             if ( $last_modified )
</span><span class="line"><span class="number">131</span>             {
</span><span class="line"><span class="number">132</span>                 $this-&gt;process_last_modified($last_modified);
</span><span class="line"><span class="number">133</span>             }
</span><span class="line"><span class="number">134</span> 
</span><span class="line highlight"><span class="number">135</span>             return $object-&gt;get_api_response_data();
</span><span class="line"><span class="number">136</span>         }
</span><span class="line"><span class="number">137</span>         else if ( $object instanceof Traversable )
</span><span class="line"><span class="number">138</span>         {
</span><span class="line"><span class="number">139</span>             return $this-&gt;convert_result_traversable($object);
</span><span class="line"><span class="number">140</span>         }
</span></code></pre></code></pre>
							</li>
								<li>
				<p>
					<span class="file">
													<a href="#error534c221b458afsource4" onclick="return koggle('error534c221b458afsource4')">MODPATH/api/classes/API/Response.php [ 111 ]</a>
											</span>
					&raquo;
					API_Response->convert_result_object(<a href="#error534c221b458afargs4" onclick="return koggle('error534c221b458afargs4')">arguments</a>)
				</p>
								<div id="error534c221b458afargs4" class="collapsed">
					<table cellspacing="0">
											<tr>
							<td><code>0</code></td>
							<td><pre><small>object</small> <span>Model_Lot(34)</span> <code>{
    <small>protected</small> _has_one => <small>array</small><span>(0)</span> 
    <small>protected</small> _belongs_to => <small>array</small><span>(4)</span> <span>(
        "subcategory" => <small>array</small><span>(2)</span> <span>(
            "foreign_key" => <small>string</small><span>(14)</span> "subcategory_id"
            "model" => <small>string</small><span>(15)</span> "Lot_Subcategory"
        )</span>
        "seller" => <small>array</small><span>(2)</span> <span>(
            "foreign_key" => <small>string</small><span>(14)</span> "seller_user_id"
            "model" => <small>string</small><span>(4)</span> "User"
        )</span>
        "author" => <small>array</small><span>(2)</span> <span>(
            "foreign_key" => <small>string</small><span>(9)</span> "author_id"
            "model" => <small>string</small><span>(10)</span> "Lot_Author"
        )</span>
        "country" => <small>array</small><span>(2)</span> <span>(
            "foreign_key" => <small>string</small><span>(10)</span> "country_id"
            "model" => <small>string</small><span>(7)</span> "Country"
        )</span>
    )</span>
    <small>protected</small> _has_many => <small>array</small><span>(3)</span> <span>(
        "parameters_values" => <small>array</small><span>(4)</span> <span>(
            "foreign_key" => <small>string</small><span>(6)</span> "lot_id"
            "through" => <small>string</small><span>(25)</span> "lots_lot_parameter_values"
            "model" => <small>string</small><span>(19)</span> "Lot_Parameter_Value"
            "far_key" => <small>string</small><span>(18)</span> "parameter_value_id"
        )</span>
        "favorites" => <small>array</small><span>(4)</span> <span>(
            "foreign_key" => <small>string</small><span>(6)</span> "lot_id"
            "through" => <small>string</small><span>(13)</span> "favorite_lots"
            "model" => <small>string</small><span>(4)</span> "User"
            "far_key" => <small>string</small><span>(7)</span> "user_id"
        )</span>
        "images" => <small>array</small><span>(4)</span> <span>(
            "foreign_key" => <small>string</small><span>(6)</span> "lot_id"
            "through" => <small>NULL</small>
            "far_key" => <small>string</small><span>(8)</span> "image_id"
            "model" => <small>string</small><span>(9)</span> "Lot_Image"
        )</span>
    )</span>
    <small>protected</small> _load_with => <small>array</small><span>(2)</span> <span>(
        0 => <small>string</small><span>(6)</span> "author"
        1 => <small>string</small><span>(7)</span> "country"
    )</span>
    <small>protected</small> _validation => <small>NULL</small>
    <small>protected</small> _object => <small>array</small><span>(20)</span> <span>(
        "id" => <small>string</small><span>(1)</span> "1"
        "status_id" => <small>string</small><span>(1)</span> "2"
        "seller_user_id" => <small>string</small><span>(1)</span> "1"
        "subcategory_id" => <small>string</small><span>(1)</span> "1"
        "author_id" => <small>string</small><span>(1)</span> "1"
        "country_id" => <small>string</small><span>(1)</span> "1"
        "year" => <small>string</small><span>(4)</span> "1903"
        "title" => <small>string</small><span>(21)</span> "Девятый вал"
        "is_recommended" => <small>string</small><span>(1)</span> "1"
        "is_top" => <small>string</small><span>(1)</span> "1"
        "price" => <small>string</small><span>(6)</span> "200000"
        "width" => <small>string</small><span>(3)</span> "100"
        "height" => <small>string</small><span>(3)</span> "200"
        "depth" => <small>string</small><span>(3)</span> "300"
        "sold" => <small>string</small><span>(1)</span> "0"
        "uri" => <small>string</small><span>(12)</span> "devyatyj-val"
        "allow_actions" => <small>string</small><span>(1)</span> "0"
        "description" => <small>string</small><span>(0)</span> ""
        "preview_image_id" => <small>NULL</small>
        "is_removed" => <small>string</small><span>(1)</span> "0"
    )</span>
    <small>protected</small> _changed => <small>array</small><span>(0)</span> 
    <small>protected</small> _original_values => <small>array</small><span>(20)</span> <span>(
        "id" => <small>string</small><span>(1)</span> "1"
        "status_id" => <small>string</small><span>(1)</span> "2"
        "seller_user_id" => <small>string</small><span>(1)</span> "1"
        "subcategory_id" => <small>string</small><span>(1)</span> "1"
        "author_id" => <small>string</small><span>(1)</span> "1"
        "country_id" => <small>string</small><span>(1)</span> "1"
        "year" => <small>string</small><span>(4)</span> "1903"
        "title" => <small>string</small><span>(21)</span> "Девятый вал"
        "is_recommended" => <small>string</small><span>(1)</span> "1"
        "is_top" => <small>string</small><span>(1)</span> "1"
        "price" => <small>string</small><span>(6)</span> "200000"
        "width" => <small>string</small><span>(3)</span> "100"
        "height" => <small>string</small><span>(3)</span> "200"
        "depth" => <small>string</small><span>(3)</span> "300"
        "sold" => <small>string</small><span>(1)</span> "0"
        "uri" => <small>string</small><span>(12)</span> "devyatyj-val"
        "allow_actions" => <small>string</small><span>(1)</span> "0"
        "description" => <small>string</small><span>(0)</span> ""
        "preview_image_id" => <small>NULL</small>
        "is_removed" => <small>string</small><span>(1)</span> "0"
    )</span>
    <small>protected</small> _related => <small>array</small><span>(3)</span> <span>(
        "author" => <small>object</small> <span>Model_Lot_Author(34)</span> <code>{
            <small>protected</small> _has_one => <small>array</small><span>(0)</span> 
            <small>protected</small> _belongs_to => <small>array</small><span>(2)</span> <span>(
                "creator" => <small>array</small><span>(2)</span> <span>(
                    "foreign_key" => <small>string</small><span>(10)</span> "created_by"
                    "model" => <small>string</small><span>(4)</span> "User"
                )</span>
                "approver" => <small>array</small><span>(2)</span> <span>(
                    "foreign_key" => <small>string</small><span>(11)</span> "approved_by"
                    "model" => <small>string</small><span>(4)</span> "User"
                )</span>
            )</span>
            <small>protected</small> _has_many => <small>array</small><span>(1)</span> <span>(
                "lots" => <small>array</small><span>(4)</span> <span>(
                    "foreign_key" => <small>string</small><span>(9)</span> "author_id"
                    "through" => <small>NULL</small>
                    "far_key" => <small>string</small><span>(6)</span> "lot_id"
                    "model" => <small>string</small><span>(3)</span> "Lot"
                )</span>
            )</span>
            <small>protected</small> _load_with => <small>array</small><span>(1)</span> <span>(
                0 => <small>string</small><span>(8)</span> "approver"
            )</span>
            <small>protected</small> _validation => <small>NULL</small>
            <small>protected</small> _object => <small>array</small><span>(8)</span> <span>(
                "id" => <small>string</small><span>(1)</span> "1"
                "label" => <small>string</small><span>(60)</span> "Иван Константинович Айвазовский"
                "uri" => <small>string</small><span>(32)</span> "ivan-konstantinovich-ajvazovskij"
                "description" => <small>string</small><span>(66)</span> "Выдающийся русский мастер живописи."
                "created_by" => <small>string</small><span>(1)</span> "1"
                "created_at" => <small>string</small><span>(19)</span> "2014-04-01 11:54:28"
                "approved_by" => <small>string</small><span>(1)</span> "1"
                "approved_at" => <small>string</small><span>(19)</span> "2014-04-01 12:02:28"
            )</span>
            <small>protected</small> _changed => <small>array</small><span>(0)</span> 
            <small>protected</small> _original_values => <small>array</small><span>(8)</span> <span>(
                "id" => <small>string</small><span>(1)</span> "1"
                "label" => <small>string</small><span>(60)</span> "Иван Константинович Айвазовский"
                "uri" => <small>string</small><span>(32)</span> "ivan-konstantinovich-ajvazovskij"
                "description" => <small>string</small><span>(66)</span> "Выдающийся русский мастер живописи."
                "created_by" => <small>string</small><span>(1)</span> "1"
                "created_at" => <small>string</small><span>(19)</span> "2014-04-01 11:54:28"
                "approved_by" => <small>string</small><span>(1)</span> "1"
                "approved_at" => <small>string</small><span>(19)</span> "2014-04-01 12:02:28"
            )</span>
            <small>protected</small> _related => <small>array</small><span>(0)</span> 
            <small>protected</small> _valid => <small>bool</small> TRUE
            <small>protected</small> _loaded => <small>bool</small> TRUE
            <small>protected</small> _saved => <small>bool</small> FALSE
            <small>protected</small> _sorting => <small>NULL</small>
            <small>protected</small> _foreign_key_suffix => <small>string</small><span>(3)</span> "_id"
            <small>protected</small> _object_name => <small>string</small><span>(10)</span> "lot_author"
            <small>protected</small> _object_plural => <small>string</small><span>(11)</span> "lot_authors"
            <small>protected</small> _table_name => <small>string</small><span>(11)</span> "lot_authors"
            <small>protected</small> _table_columns => <small>array</small><span>(8)</span> <span>(
                "id" => <small>array</small><span>(13)</span> <span>(
                    "type" => <small>string</small><span>(3)</span> "int"
                    "min" => <small>string</small><span>(1)</span> "0"
                    "max" => <small>string</small><span>(10)</span> "4294967295"
                    "column_name" => <small>string</small><span>(2)</span> "id"
                    "column_default" => <small>NULL</small>
                    "data_type" => <small>string</small><span>(12)</span> "int unsigned"
                    "is_nullable" => <small>bool</small> FALSE
                    "ordinal_position" => <small>integer</small> 1
                    "display" => <small>string</small><span>(2)</span> "11"
                    "comment" => <small>string</small><span>(0)</span> ""
                    "extra" => <small>string</small><span>(14)</span> "auto_increment"
                    "key" => <small>string</small><span>(3)</span> "PRI"
                    "privileges" => <small>string</small><span>(31)</span> "select,insert,update,references"
                )</span>
                "label" => <small>array</small><span>(12)</span> <span>(
                    "type" => <small>string</small><span>(6)</span> "string"
                    "column_name" => <small>string</small><span>(5)</span> "label"
                    "column_default" => <small>NULL</small>
                    "data_type" => <small>string</small><span>(7)</span> "varchar"
                    "is_nullable" => <small>bool</small> FALSE
                    "ordinal_position" => <small>integer</small> 2
                    "character_maximum_length" => <small>string</small><span>(2)</span> "64"
                    "collation_name" => <small>string</small><span>(15)</span> "utf8_unicode_ci"
                    "comment" => <small>string</small><span>(0)</span> ""
                    "extra" => <small>string</small><span>(0)</span> ""
                    "key" => <small>string</small><span>(3)</span> "UNI"
                    "privileges" => <small>string</small><span>(31)</span> "select,insert,update,references"
                )</span>
                "uri" => <small>array</small><span>(12)</span> <span>(
                    "type" => <small>string</small><span>(6)</span> "string"
                    "column_name" => <small>string</small><span>(3)</span> "uri"
                    "column_default" => <small>NULL</small>
                    "data_type" => <small>string</small><span>(7)</span> "varchar"
                    "is_nullable" => <small>bool</small> FALSE
                    "ordinal_position" => <small>integer</small> 3
                    "character_maximum_length" => <small>string</small><span>(2)</span> "64"
                    "collation_name" => <small>string</small><span>(15)</span> "utf8_unicode_ci"
                    "comment" => <small>string</small><span>(0)</span> ""
                    "extra" => <small>string</small><span>(0)</span> ""
                    "key" => <small>string</small><span>(3)</span> "UNI"
                    "privileges" => <small>string</small><span>(31)</span> "select,insert,update,references"
                )</span>
                "description" => <small>array</small><span>(12)</span> <span>(
                    "type" => <small>string</small><span>(6)</span> "string"
                    "character_maximum_length" => <small>string</small><span>(5)</span> "65535"
                    "column_name" => <small>string</small><span>(11)</span> "description"
                    "column_default" => <small>NULL</small>
                    "data_type" => <small>string</small><span>(4)</span> "text"
                    "is_nullable" => <small>bool</small> FALSE
                    "ordinal_position" => <small>integer</small> 4
                    "collation_name" => <small>string</small><span>(15)</span> "utf8_unicode_ci"
                    "comment" => <small>string</small><span>(0)</span> ""
                    "extra" => <small>string</small><span>(0)</span> ""
                    "key" => <small>string</small><span>(0)</span> ""
                    "privileges" => <small>string</small><span>(31)</span> "select,insert,update,references"
                )</span>
                "created_by" => <small>array</small><span>(13)</span> <span>(
                    "type" => <small>string</small><span>(3)</span> "int"
                    "min" => <small>string</small><span>(1)</span> "0"
                    "max" => <small>string</small><span>(10)</span> "4294967295"
                    "column_name" => <small>string</small><span>(10)</span> "created_by"
                    "column_default" => <small>NULL</small>
                    "data_type" => <small>string</small><span>(12)</span> "int unsigned"
                    "is_nullable" => <small>bool</small> FALSE
                    "ordinal_position" => <small>integer</small> 5
                    "display" => <small>string</small><span>(2)</span> "11"
                    "comment" => <small>string</small><span>(0)</span> ""
                    "extra" => <small>string</small><span>(0)</span> ""
                    "key" => <small>string</small><span>(3)</span> "MUL"
                    "privileges" => <small>string</small><span>(31)</span> "select,insert,update,references"
                )</span>
                "created_at" => <small>array</small><span>(10)</span> <span>(
                    "type" => <small>string</small><span>(6)</span> "string"
                    "column_name" => <small>string</small><span>(10)</span> "created_at"
                    "column_default" => <small>string</small><span>(17)</span> "CURRENT_TIMESTAMP"
                    "data_type" => <small>string</small><span>(9)</span> "timestamp"
                    "is_nullable" => <small>bool</small> FALSE
                    "ordinal_position" => <small>integer</small> 6
                    "comment" => <small>string</small><span>(0)</span> ""
                    "extra" => <small>string</small><span>(0)</span> ""
                    "key" => <small>string</small><span>(0)</span> ""
                    "privileges" => <small>string</small><span>(31)</span> "select,insert,update,references"
                )</span>
                "approved_by" => <small>array</small><span>(13)</span> <span>(
                    "type" => <small>string</small><span>(3)</span> "int"
                    "min" => <small>string</small><span>(1)</span> "0"
                    "max" => <small>string</small><span>(10)</span> "4294967295"
                    "column_name" => <small>string</small><span>(11)</span> "approved_by"
                    "column_default" => <small>NULL</small>
                    "data_type" => <small>string</small><span>(12)</span> "int unsigned"
                    "is_nullable" => <small>bool</small> TRUE
                    "ordinal_position" => <small>integer</small> 7
                    "display" => <small>string</small><span>(2)</span> "11"
                    "comment" => <small>string</small><span>(0)</span> ""
                    "extra" => <small>string</small><span>(0)</span> ""
                    "key" => <small>string</small><span>(3)</span> "MUL"
                    "privileges" => <small>string</small><span>(31)</span> "select,insert,update,references"
                )</span>
                "approved_at" => <small>array</small><span>(10)</span> <span>(
                    "type" => <small>string</small><span>(6)</span> "string"
                    "column_name" => <small>string</small><span>(11)</span> "approved_at"
                    "column_default" => <small>NULL</small>
                    "data_type" => <small>string</small><span>(9)</span> "timestamp"
                    "is_nullable" => <small>bool</small> TRUE
                    "ordinal_position" => <small>integer</small> 8
                    "comment" => <small>string</small><span>(0)</span> ""
                    "extra" => <small>string</small><span>(0)</span> ""
                    "key" => <small>string</small><span>(0)</span> ""
                    "privileges" => <small>string</small><span>(31)</span> "select,insert,update,references"
                )</span>
            )</span>
            <small>protected</small> _updated_column => <small>NULL</small>
            <small>protected</small> _created_column => <small>NULL</small>
            <small>protected</small> _serialize_columns => <small>array</small><span>(0)</span> 
            <small>protected</small> _primary_key => <small>string</small><span>(2)</span> "id"
            <small>protected</small> _primary_key_value => <small>string</small><span>(1)</span> "1"
            <small>protected</small> _table_names_plural => <small>bool</small> TRUE
            <small>protected</small> _reload_on_wakeup => <small>bool</small> TRUE
            <small>protected</small> _db => <small>object</small> <span>Database_MySQL(6)</span> <code>{
                <small>protected</small> _connection_id => <small>string</small><span>(40)</span> "dd20b3b4b106505a9e7ee4afe594d0da1f425047"
                <small>protected</small> _identifier => <small>string</small><span>(1)</span> "`"
                <small>public</small> last_query => <small>string</small><span>(281)</span> "SELECT `iface`.`id` AS `id`, `iface`.`parent_id` AS `parent_id`, `iface`.`is_default` AS `is_default`, `iface`.`codename` AS `co&nbsp;&hellip;"
                <small>protected</small> _instance => <small>string</small><span>(7)</span> "default"
                <small>protected</small> _connection => <small>resource</small><span>(mysql link)</span>
                <small>protected</small> _config => <small>array</small><span>(6)</span> <span>(
                    "type" => <small>string</small><span>(5)</span> "MySQL"